version 2
run Drive-Vlc-Position-0-20181206-14:18:50-14628
attr configname Drive-Vlc-Position
attr datetime 20181206-14:18:50
attr experiment vlc-experiment-highwaySimple
attr inifile omnetpp1.ini
attr iterationvars ""
attr iterationvarsf ""
attr measurement ""
attr network scenarioPedro
attr processid 14628
attr repetition 0
attr replication #0
attr resultdir results/VVLC-highwaySimple/
attr runnumber 0
attr seedset 0
param **.coreDebug false
param **.debug false
param **.draw false
param *.**.nic.mac1609_4.bitrate 6Mbps
param *.**.nic.mac1609_4.txPower 1.6mW
param *.**.nic.mac1609_4.useServiceChannel false
param *.**.nic.phy80211p.analogueModels "xmldoc(\"config.xml\")"
param *.**.nic.phy80211p.antenna "xmldoc(\"antenna.xml\", \"/root/Antenna[@id='monopole']\")"
param *.**.nic.phy80211p.decider "xmldoc(\"config.xml\")"
param *.**.nic.phy80211p.sensitivity -94dBm
param *.**.nic.phy80211p.thermalNoise -110dBm
param *.**.nic.phy80211p.usePropagationDelay true
param *.**.nic.phy80211p.useThermalNoise true
param *.**.nicVlc**.phyVlc.analogueModels "xmldoc(\"config-vlc.xml\")"
param *.**.nicVlc**.phyVlc.bandwidth 1.0MHz
param *.**.nicVlc**.phyVlc.bitrate 6Mbps
param *.**.nicVlc**.phyVlc.centerFrequency 666000GHz
param *.**.nicVlc**.phyVlc.decider "xmldoc(\"config-vlc.xml\")"
param *.**.nicVlc**.phyVlc.sensitivity -114dBm
param *.**.nicVlc**.phyVlc.thermalNoise -110dBm
param *.**.nicVlc**.phyVlc.txPower 10mW
param *.**.nicVlc**.phyVlc.usePropagationDelay true
param *.**.nicVlc**.phyVlc.useThermalNoise true
param *.**.nicVlcHead.direction "\"head\""
param *.**.nicVlcTail.direction "\"tail\""
param *.**.splitter.drawHeadHalfAngle 45deg
param *.**.splitter.drawTailHalfAngle 60deg
param *.annotations.draw true
param *.connectionManager.maxInterfDist 2600m
param *.connectionManager.sendDirect true
param *.manager.commandLine "\"sumo-gui --remote-port $port --seed $seed --configuration-file $configFile\""
param *.manager.configFile "\"curved-road/sumo.sumocfg\""
param *.manager.distanceVehicles 250m
param *.manager.moduleType "\"org.car2x.veins.modules.vlc.CarVlc\""
param *.manager.numVehicles 2
param *.manager.updateInterval 0.1s
param *.node[*].applType "\"org.car2x.veins.modules.vlc.application.PositionVlcApp.PositionVlcApp\""
param *.node[*].application.beaconingFrequency 1Hz
param *.node[*].application.debug true
param *.node[*].application.packetByteLength 1024byte
param *.node[*].application.repetition 0
param *.node[*].nicVlc**.phyVLC.debug false
param *.node[*].splitter.debug true
param *.node[*].splitter.draw true
param *.node[*].veinsmobility.x 0
param *.node[*].veinsmobility.y 0
param *.node[*].veinsmobility.z 1.895
param *.node[14].application.posReq false
param *.node[2].application.posReq false
param *.node[9].application.posReq true
param *.playgroundSizeX 10000m
param *.playgroundSizeY 500m
param *.playgroundSizeZ 50m

vector 2  scenarioPedro.node[0].veinsmobility  posx  ETV
vector 3  scenarioPedro.node[0].veinsmobility  posy  ETV
vector 13  scenarioPedro.node[1].veinsmobility  posx  ETV
vector 14  scenarioPedro.node[1].veinsmobility  posy  ETV
vector 24  scenarioPedro.node[2].veinsmobility  posx  ETV
vector 25  scenarioPedro.node[2].veinsmobility  posy  ETV
vector 35  scenarioPedro.node[3].veinsmobility  posx  ETV
vector 36  scenarioPedro.node[3].veinsmobility  posy  ETV
vector 46  scenarioPedro.node[4].veinsmobility  posx  ETV
vector 47  scenarioPedro.node[4].veinsmobility  posy  ETV
vector 57  scenarioPedro.node[5].veinsmobility  posx  ETV
vector 58  scenarioPedro.node[5].veinsmobility  posy  ETV
vector 68  scenarioPedro.node[6].veinsmobility  posx  ETV
vector 69  scenarioPedro.node[6].veinsmobility  posy  ETV
vector 79  scenarioPedro.node[7].veinsmobility  posx  ETV
vector 80  scenarioPedro.node[7].veinsmobility  posy  ETV
vector 90  scenarioPedro.node[8].veinsmobility  posx  ETV
vector 91  scenarioPedro.node[8].veinsmobility  posy  ETV
vector 101  scenarioPedro.node[9].veinsmobility  posx  ETV
vector 102  scenarioPedro.node[9].veinsmobility  posy  ETV
vector 112  scenarioPedro.node[10].veinsmobility  posx  ETV
vector 113  scenarioPedro.node[10].veinsmobility  posy  ETV
vector 123  scenarioPedro.node[11].veinsmobility  posx  ETV
vector 124  scenarioPedro.node[11].veinsmobility  posy  ETV
vector 134  scenarioPedro.node[12].veinsmobility  posx  ETV
vector 135  scenarioPedro.node[12].veinsmobility  posy  ETV
vector 145  scenarioPedro.node[13].veinsmobility  posx  ETV
vector 146  scenarioPedro.node[13].veinsmobility  posy  ETV
vector 156  scenarioPedro.node[14].veinsmobility  posx  ETV
vector 157  scenarioPedro.node[14].veinsmobility  posy  ETV
vector 167  scenarioPedro.node[15].veinsmobility  posx  ETV
vector 168  scenarioPedro.node[15].veinsmobility  posy  ETV
vector 178  scenarioPedro.node[16].veinsmobility  posx  ETV
vector 179  scenarioPedro.node[16].veinsmobility  posy  ETV
vector 189  scenarioPedro.node[17].veinsmobility  posx  ETV
vector 190  scenarioPedro.node[17].veinsmobility  posy  ETV
vector 200  scenarioPedro.node[18].veinsmobility  posx  ETV
vector 201  scenarioPedro.node[18].veinsmobility  posy  ETV
vector 211  scenarioPedro.node[19].veinsmobility  posx  ETV
vector 212  scenarioPedro.node[19].veinsmobility  posy  ETV
vector 222  scenarioPedro.node[20].veinsmobility  posx  ETV
vector 223  scenarioPedro.node[20].veinsmobility  posy  ETV
vector 4  scenarioPedro.node[0].veinsmobility  speed  ETV
vector 15  scenarioPedro.node[1].veinsmobility  speed  ETV
vector 26  scenarioPedro.node[2].veinsmobility  speed  ETV
vector 37  scenarioPedro.node[3].veinsmobility  speed  ETV
vector 48  scenarioPedro.node[4].veinsmobility  speed  ETV
vector 59  scenarioPedro.node[5].veinsmobility  speed  ETV
vector 70  scenarioPedro.node[6].veinsmobility  speed  ETV
vector 81  scenarioPedro.node[7].veinsmobility  speed  ETV
vector 92  scenarioPedro.node[8].veinsmobility  speed  ETV
vector 103  scenarioPedro.node[9].veinsmobility  speed  ETV
vector 114  scenarioPedro.node[10].veinsmobility  speed  ETV
vector 125  scenarioPedro.node[11].veinsmobility  speed  ETV
vector 136  scenarioPedro.node[12].veinsmobility  speed  ETV
vector 147  scenarioPedro.node[13].veinsmobility  speed  ETV
vector 158  scenarioPedro.node[14].veinsmobility  speed  ETV
vector 169  scenarioPedro.node[15].veinsmobility  speed  ETV
vector 180  scenarioPedro.node[16].veinsmobility  speed  ETV
vector 191  scenarioPedro.node[17].veinsmobility  speed  ETV
vector 202  scenarioPedro.node[18].veinsmobility  speed  ETV
vector 213  scenarioPedro.node[19].veinsmobility  speed  ETV
vector 224  scenarioPedro.node[20].veinsmobility  speed  ETV
vector 5  scenarioPedro.node[0].veinsmobility  acceleration  ETV
vector 6  scenarioPedro.node[0].veinsmobility  co2emission  ETV
vector 16  scenarioPedro.node[1].veinsmobility  acceleration  ETV
vector 17  scenarioPedro.node[1].veinsmobility  co2emission  ETV
vector 27  scenarioPedro.node[2].veinsmobility  acceleration  ETV
vector 28  scenarioPedro.node[2].veinsmobility  co2emission  ETV
vector 38  scenarioPedro.node[3].veinsmobility  acceleration  ETV
vector 39  scenarioPedro.node[3].veinsmobility  co2emission  ETV
vector 49  scenarioPedro.node[4].veinsmobility  acceleration  ETV
vector 50  scenarioPedro.node[4].veinsmobility  co2emission  ETV
vector 60  scenarioPedro.node[5].veinsmobility  acceleration  ETV
vector 61  scenarioPedro.node[5].veinsmobility  co2emission  ETV
vector 71  scenarioPedro.node[6].veinsmobility  acceleration  ETV
vector 72  scenarioPedro.node[6].veinsmobility  co2emission  ETV
vector 82  scenarioPedro.node[7].veinsmobility  acceleration  ETV
vector 83  scenarioPedro.node[7].veinsmobility  co2emission  ETV
vector 93  scenarioPedro.node[8].veinsmobility  acceleration  ETV
vector 94  scenarioPedro.node[8].veinsmobility  co2emission  ETV
vector 104  scenarioPedro.node[9].veinsmobility  acceleration  ETV
vector 105  scenarioPedro.node[9].veinsmobility  co2emission  ETV
vector 115  scenarioPedro.node[10].veinsmobility  acceleration  ETV
vector 116  scenarioPedro.node[10].veinsmobility  co2emission  ETV
vector 126  scenarioPedro.node[11].veinsmobility  acceleration  ETV
vector 127  scenarioPedro.node[11].veinsmobility  co2emission  ETV
vector 137  scenarioPedro.node[12].veinsmobility  acceleration  ETV
vector 138  scenarioPedro.node[12].veinsmobility  co2emission  ETV
vector 148  scenarioPedro.node[13].veinsmobility  acceleration  ETV
vector 149  scenarioPedro.node[13].veinsmobility  co2emission  ETV
vector 159  scenarioPedro.node[14].veinsmobility  acceleration  ETV
vector 160  scenarioPedro.node[14].veinsmobility  co2emission  ETV
vector 170  scenarioPedro.node[15].veinsmobility  acceleration  ETV
vector 171  scenarioPedro.node[15].veinsmobility  co2emission  ETV
vector 181  scenarioPedro.node[16].veinsmobility  acceleration  ETV
vector 182  scenarioPedro.node[16].veinsmobility  co2emission  ETV
vector 192  scenarioPedro.node[17].veinsmobility  acceleration  ETV
vector 193  scenarioPedro.node[17].veinsmobility  co2emission  ETV
vector 203  scenarioPedro.node[18].veinsmobility  acceleration  ETV
vector 204  scenarioPedro.node[18].veinsmobility  co2emission  ETV
vector 214  scenarioPedro.node[19].veinsmobility  acceleration  ETV
vector 215  scenarioPedro.node[19].veinsmobility  co2emission  ETV
vector 225  scenarioPedro.node[20].veinsmobility  acceleration  ETV
vector 226  scenarioPedro.node[20].veinsmobility  co2emission  ETV
6	4	0.3	1.15833237888
6	5	0.4	1.15833237888
6	6	0.5	1.15833237888
6	7	0.6	1.15833237888
6	8	0.7	1.15833237888
6	9	0.8	1.15833237888
6	10	0.9	1.15833237888
6	11	1	1.15833237888
6	12	1.1	1.15833237888
6	188	1.2	1.15833237888
6	193	1.3	1.15833237888
6	194	1.4	1.15833237888
6	195	1.5	1.15833237888
6	196	1.6	1.15833237888
6	197	1.7	1.15833237888
6	198	1.8	1.15833237888
6	199	1.9	1.15833237888
6	200	2	1.15833237888
6	201	2.1	1.15833237888
6	202	2.2	1.15833237888
6	203	2.3	1.15833237888
6	204	2.4	1.15833237888
6	205	2.5	1.15833237888
6	206	2.6	1.15833237888
6	207	2.7	1.15833237888
6	208	2.8	1.15833237888
6	209	2.9	1.15833237888
6	210	3	1.15833237888
6	211	3.1	1.15833237888
6	212	3.2	1.15833237888
6	213	3.3	1.15833237888
6	214	3.4	1.15833237888
6	215	3.5	1.15833237888
6	216	3.6	1.15833237888
6	217	3.7	1.15833237888
6	218	3.8	1.15833237888
6	219	3.9	1.15833237888
6	220	4	1.15833237888
6	221	4.1	1.15833237888
6	222	4.2	1.15833237888
6	223	4.3	1.15833237888
6	224	4.4	1.15833237888
6	225	4.5	1.15833237888
6	226	4.6	1.15833237888
6	227	4.7	1.15833237888
6	228	4.8	1.15833237888
6	229	4.9	1.15833237888
6	230	5	1.15833237888
6	231	5.1	1.15833237888
6	232	5.2	1.15833237888
5	4	0.3	0
5	5	0.4	0
5	6	0.5	0
5	7	0.6	0
5	8	0.7	0
5	9	0.8	0
5	10	0.9	0
5	11	1	0
5	12	1.1	0
5	188	1.2	0
5	193	1.3	0
5	194	1.4	0
5	195	1.5	0
5	196	1.6	0
5	197	1.7	0
5	198	1.8	0
5	199	1.9	0
5	200	2	0
5	201	2.1	0
5	202	2.2	0
5	203	2.3	0
5	204	2.4	0
5	205	2.5	0
5	206	2.6	0
5	207	2.7	0
5	208	2.8	0
5	209	2.9	0
5	210	3	0
5	211	3.1	0
5	212	3.2	0
5	213	3.3	0
5	214	3.4	0
5	215	3.5	0
5	216	3.6	0
5	217	3.7	0
5	218	3.8	0
5	219	3.9	0
5	220	4	0
5	221	4.1	0
5	222	4.2	0
5	223	4.3	0
5	224	4.4	0
5	225	4.5	0
5	226	4.6	0
5	227	4.7	0
5	228	4.8	0
5	229	4.9	0
5	230	5	0
5	231	5.1	0
5	232	5.2	0
4	3	0.2	1
4	4	0.3	1
4	5	0.4	1
4	6	0.5	1
4	7	0.6	1
4	8	0.7	1
4	9	0.8	1
4	10	0.9	1
4	11	1	1
4	12	1.1	1
4	188	1.2	1
4	193	1.3	1
4	194	1.4	1
4	195	1.5	1
4	196	1.6	1
4	197	1.7	1
4	198	1.8	1
4	199	1.9	1
4	200	2	1
4	201	2.1	1
4	202	2.2	1
4	203	2.3	1
4	204	2.4	1
4	205	2.5	1
4	206	2.6	1
4	207	2.7	1
4	208	2.8	1
4	209	2.9	1
4	210	3	1
4	211	3.1	1
4	212	3.2	1
4	213	3.3	1
4	214	3.4	1
4	215	3.5	1
4	216	3.6	1
4	217	3.7	1
4	218	3.8	1
4	219	3.9	1
4	220	4	1
4	221	4.1	1
4	222	4.2	1
4	223	4.3	1
4	224	4.4	1
4	225	4.5	1
4	226	4.6	1
4	227	4.7	1
4	228	4.8	1
4	229	4.9	1
4	230	5	1
4	231	5.1	1
4	232	5.2	1
3	2	0.1	33.25
3	3	0.2	33.25
3	4	0.3	33.25
3	5	0.4	33.25
3	6	0.5	33.25
3	7	0.6	33.25
3	8	0.7	33.25
3	9	0.8	33.25
3	10	0.9	33.25
3	11	1	33.25
3	12	1.1	33.25
3	188	1.2	33.25
3	193	1.3	33.25
3	194	1.4	33.25
3	195	1.5	33.25
3	196	1.6	33.25
3	197	1.7	33.25
3	198	1.8	33.25
3	199	1.9	33.25
3	200	2	33.25
3	201	2.1	33.25
3	202	2.2	33.25
3	203	2.3	33.25
3	204	2.4	33.25
3	205	2.5	33.25
3	206	2.6	33.25
3	207	2.7	33.25
3	208	2.8	33.25
3	209	2.9	33.25
3	210	3	33.25
3	211	3.1	33.25
3	212	3.2	33.25
3	213	3.3	33.25
3	214	3.4	33.25
3	215	3.5	33.25
3	216	3.6	33.25
3	217	3.7	33.25
3	218	3.8	33.25
3	219	3.9	33.25
3	220	4	33.25
3	221	4.1	33.25
3	222	4.2	33.25
3	223	4.3	33.25
3	224	4.4	33.25
3	225	4.5	33.25
3	226	4.6	33.25
3	227	4.7	33.25
3	228	4.8	33.25
3	229	4.9	33.25
3	230	5	33.25
3	231	5.1	33.25
3	232	5.2	33.25
2	2	0.1	75.09
2	3	0.2	75.09
2	4	0.3	75.19
2	5	0.4	75.29
2	6	0.5	75.39
2	7	0.6	75.49
2	8	0.7	75.59
2	9	0.8	75.69
2	10	0.9	75.79
2	11	1	75.89
2	12	1.1	75.99
2	188	1.2	76.09
2	193	1.3	76.19
2	194	1.4	76.29
2	195	1.5	76.39
2	196	1.6	76.49
2	197	1.7	76.59
2	198	1.8	76.69
2	199	1.9	76.79
2	200	2	76.89
2	201	2.1	76.99
2	202	2.2	77.09
2	203	2.3	77.19
2	204	2.4	77.29
2	205	2.5	77.39
2	206	2.6	77.489999999999
2	207	2.7	77.589999999999
2	208	2.8	77.689999999999
2	209	2.9	77.789999999999
2	210	3	77.889999999999
2	211	3.1	77.989999999999
2	212	3.2	78.089999999999
2	213	3.3	78.189999999999
2	214	3.4	78.289999999999
2	215	3.5	78.389999999999
2	216	3.6	78.489999999999
2	217	3.7	78.589999999999
2	218	3.8	78.689999999999
2	219	3.9	78.789999999999
2	220	4	78.889999999999
2	221	4.1	78.989999999999
2	222	4.2	79.089999999999
2	223	4.3	79.189999999999
2	224	4.4	79.289999999999
2	225	4.5	79.389999999999
2	226	4.6	79.489999999999
2	227	4.7	79.589999999999
2	228	4.8	79.689999999999
2	229	4.9	79.789999999999
2	230	5	79.889999999999
2	231	5.1	79.989999999999
2	232	5.2	80.089999999999
17	4	0.3	1.15833237888
17	5	0.4	1.15833237888
17	6	0.5	1.15833237888
17	7	0.6	1.15833237888
17	8	0.7	1.15833237888
17	9	0.8	1.15833237888
17	10	0.9	1.15833237888
17	11	1	1.15833237888
17	12	1.1	1.15833237888
17	188	1.2	1.15833237888
17	193	1.3	1.15833237888
17	194	1.4	1.15833237888
17	195	1.5	1.15833237888
17	196	1.6	1.15833237888
17	197	1.7	1.15833237888
17	198	1.8	1.15833237888
17	199	1.9	1.15833237888
17	200	2	1.15833237888
17	201	2.1	1.15833237888
17	202	2.2	1.15833237888
17	203	2.3	1.15833237888
17	204	2.4	1.15833237888
17	205	2.5	1.15833237888
17	206	2.6	1.15833237888
17	207	2.7	1.15833237888
17	208	2.8	1.15833237888
17	209	2.9	1.15833237888
17	210	3	1.15833237888
17	211	3.1	1.15833237888
17	212	3.2	1.15833237888
17	213	3.3	1.15833237888
17	214	3.4	1.15833237888
17	215	3.5	1.15833237888
17	216	3.6	1.15833237888
17	217	3.7	1.15833237888
17	218	3.8	1.15833237888
17	219	3.9	1.15833237888
17	220	4	1.15833237888
17	221	4.1	1.15833237888
17	222	4.2	1.15833237888
17	223	4.3	1.15833237888
17	224	4.4	1.15833237888
17	225	4.5	1.15833237888
17	226	4.6	1.15833237888
17	227	4.7	1.15833237888
17	228	4.8	1.15833237888
17	229	4.9	1.15833237888
17	230	5	1.15833237888
17	231	5.1	1.15833237888
17	232	5.2	1.15833237888
16	4	0.3	0
16	5	0.4	0
16	6	0.5	0
16	7	0.6	0
16	8	0.7	0
16	9	0.8	0
16	10	0.9	0
16	11	1	0
16	12	1.1	0
16	188	1.2	0
16	193	1.3	0
16	194	1.4	0
16	195	1.5	0
16	196	1.6	0
16	197	1.7	0
16	198	1.8	0
16	199	1.9	0
16	200	2	0
16	201	2.1	0
16	202	2.2	0
16	203	2.3	0
16	204	2.4	0
16	205	2.5	0
16	206	2.6	0
16	207	2.7	0
16	208	2.8	0
16	209	2.9	0
16	210	3	0
16	211	3.1	0
16	212	3.2	0
16	213	3.3	0
16	214	3.4	0
16	215	3.5	0
16	216	3.6	0
16	217	3.7	0
16	218	3.8	0
16	219	3.9	0
16	220	4	0
16	221	4.1	0
16	222	4.2	0
16	223	4.3	0
16	224	4.4	0
16	225	4.5	0
16	226	4.6	0
16	227	4.7	0
16	228	4.8	0
16	229	4.9	0
16	230	5	0
16	231	5.1	0
16	232	5.2	0
15	3	0.2	1
15	4	0.3	1
15	5	0.4	1
15	6	0.5	1
15	7	0.6	1
15	8	0.7	1
15	9	0.8	1
15	10	0.9	1
15	11	1	1
15	12	1.1	1
15	188	1.2	1
15	193	1.3	1
15	194	1.4	1
15	195	1.5	1
15	196	1.6	1
15	197	1.7	1
15	198	1.8	1
15	199	1.9	1
15	200	2	1
15	201	2.1	1
15	202	2.2	1
15	203	2.3	1
15	204	2.4	1
15	205	2.5	1
15	206	2.6	1
15	207	2.7	1
15	208	2.8	1
15	209	2.9	1
15	210	3	1
15	211	3.1	1
15	212	3.2	1
15	213	3.3	1
15	214	3.4	1
15	215	3.5	1
15	216	3.6	1
15	217	3.7	1
15	218	3.8	1
15	219	3.9	1
15	220	4	1
15	221	4.1	1
15	222	4.2	1
15	223	4.3	1
15	224	4.4	1
15	225	4.5	1
15	226	4.6	1
15	227	4.7	1
15	228	4.8	1
15	229	4.9	1
15	230	5	1
15	231	5.1	1
15	232	5.2	1
14	2	0.1	29.95
14	3	0.2	29.95
14	4	0.3	29.95
14	5	0.4	29.95
14	6	0.5	29.95
14	7	0.6	29.95
14	8	0.7	29.95
14	9	0.8	29.95
14	10	0.9	29.95
14	11	1	29.95
14	12	1.1	29.95
14	188	1.2	29.95
14	193	1.3	29.95
14	194	1.4	29.95
14	195	1.5	29.95
14	196	1.6	29.95
14	197	1.7	29.95
14	198	1.8	29.95
14	199	1.9	29.95
14	200	2	29.95
14	201	2.1	29.95
14	202	2.2	29.95
14	203	2.3	29.95
14	204	2.4	29.95
14	205	2.5	29.95
14	206	2.6	29.95
14	207	2.7	29.95
14	208	2.8	29.95
14	209	2.9	29.95
14	210	3	29.95
14	211	3.1	29.95
14	212	3.2	29.95
14	213	3.3	29.95
14	214	3.4	29.95
14	215	3.5	29.95
14	216	3.6	29.95
14	217	3.7	29.95
14	218	3.8	29.95
14	219	3.9	29.95
14	220	4	29.95
14	221	4.1	29.95
14	222	4.2	29.95
14	223	4.3	29.95
14	224	4.4	29.95
14	225	4.5	29.95
14	226	4.6	29.95
14	227	4.7	29.95
14	228	4.8	29.95
14	229	4.9	29.95
14	230	5	29.95
14	231	5.1	29.95
14	232	5.2	29.95
13	2	0.1	75.09
13	3	0.2	75.09
13	4	0.3	75.19
13	5	0.4	75.29
13	6	0.5	75.39
13	7	0.6	75.49
13	8	0.7	75.59
13	9	0.8	75.69
13	10	0.9	75.79
13	11	1	75.89
13	12	1.1	75.99
13	188	1.2	76.09
13	193	1.3	76.19
13	194	1.4	76.29
13	195	1.5	76.39
13	196	1.6	76.49
13	197	1.7	76.59
13	198	1.8	76.69
13	199	1.9	76.79
13	200	2	76.89
13	201	2.1	76.99
13	202	2.2	77.09
13	203	2.3	77.19
13	204	2.4	77.29
13	205	2.5	77.39
13	206	2.6	77.489999999999
13	207	2.7	77.589999999999
13	208	2.8	77.689999999999
13	209	2.9	77.789999999999
13	210	3	77.889999999999
13	211	3.1	77.989999999999
13	212	3.2	78.089999999999
13	213	3.3	78.189999999999
13	214	3.4	78.289999999999
13	215	3.5	78.389999999999
13	216	3.6	78.489999999999
13	217	3.7	78.589999999999
13	218	3.8	78.689999999999
13	219	3.9	78.789999999999
13	220	4	78.889999999999
13	221	4.1	78.989999999999
13	222	4.2	79.089999999999
13	223	4.3	79.189999999999
13	224	4.4	79.289999999999
13	225	4.5	79.389999999999
13	226	4.6	79.489999999999
13	227	4.7	79.589999999999
13	228	4.8	79.689999999999
13	229	4.9	79.789999999999
13	230	5	79.889999999999
13	231	5.1	79.989999999999
13	232	5.2	80.089999999999
28	4	0.3	1.15833237888
28	5	0.4	1.15833237888
28	6	0.5	1.15833237888
28	7	0.6	1.15833237888
28	8	0.7	1.15833237888
28	9	0.8	1.15833237888
28	10	0.9	1.15833237888
28	11	1	1.15833237888
28	12	1.1	1.15833237888
28	188	1.2	1.15833237888
28	193	1.3	1.15833237888
28	194	1.4	1.15833237888
28	195	1.5	1.15833237888
28	196	1.6	1.15833237888
28	197	1.7	1.15833237888
28	198	1.8	1.15833237888
28	199	1.9	1.15833237888
28	200	2	1.15833237888
28	201	2.1	1.15833237888
28	202	2.2	1.15833237888
28	203	2.3	1.15833237888
28	204	2.4	1.15833237888
28	205	2.5	1.15833237888
28	206	2.6	1.15833237888
28	207	2.7	1.15833237888
28	208	2.8	1.15833237888
28	209	2.9	1.15833237888
28	210	3	1.15833237888
28	211	3.1	1.15833237888
28	212	3.2	1.15833237888
28	213	3.3	1.15833237888
28	214	3.4	1.15833237888
28	215	3.5	1.15833237888
28	216	3.6	1.15833237888
28	217	3.7	1.15833237888
28	218	3.8	1.15833237888
28	219	3.9	1.15833237888
28	220	4	1.15833237888
28	221	4.1	1.15833237888
28	222	4.2	1.15833237888
28	223	4.3	1.15833237888
28	224	4.4	1.15833237888
28	225	4.5	1.15833237888
28	226	4.6	1.15833237888
28	227	4.7	1.15833237888
28	228	4.8	1.15833237888
28	229	4.9	1.15833237888
28	230	5	1.15833237888
28	231	5.1	1.15833237888
28	232	5.2	1.15833237888
27	4	0.3	0
27	5	0.4	0
27	6	0.5	0
27	7	0.6	0
27	8	0.7	0
27	9	0.8	0
27	10	0.9	0
27	11	1	0
27	12	1.1	0
27	188	1.2	0
27	193	1.3	0
27	194	1.4	0
27	195	1.5	0
27	196	1.6	0
27	197	1.7	0
27	198	1.8	0
27	199	1.9	0
27	200	2	0
27	201	2.1	0
27	202	2.2	0
27	203	2.3	0
27	204	2.4	0
27	205	2.5	0
27	206	2.6	0
27	207	2.7	0
27	208	2.8	0
27	209	2.9	0
27	210	3	0
27	211	3.1	0
27	212	3.2	0
27	213	3.3	0
27	214	3.4	0
27	215	3.5	0
27	216	3.6	0
27	217	3.7	0
27	218	3.8	0
27	219	3.9	0
27	220	4	0
27	221	4.1	0
27	222	4.2	0
27	223	4.3	0
27	224	4.4	0
27	225	4.5	0
27	226	4.6	0
27	227	4.7	0
27	228	4.8	0
27	229	4.9	0
27	230	5	0
27	231	5.1	0
27	232	5.2	0
26	3	0.2	1
26	4	0.3	1
26	5	0.4	1
26	6	0.5	1
26	7	0.6	1
26	8	0.7	1
26	9	0.8	1
26	10	0.9	1
26	11	1	1
26	12	1.1	1
26	188	1.2	1
26	193	1.3	1
26	194	1.4	1
26	195	1.5	1
26	196	1.6	1
26	197	1.7	1
26	198	1.8	1
26	199	1.9	1
26	200	2	1
26	201	2.1	1
26	202	2.2	1
26	203	2.3	1
26	204	2.4	1
26	205	2.5	1
26	206	2.6	1
26	207	2.7	1
26	208	2.8	1
26	209	2.9	1
26	210	3	1
26	211	3.1	1
26	212	3.2	1
26	213	3.3	1
26	214	3.4	1
26	215	3.5	1
26	216	3.6	1
26	217	3.7	1
26	218	3.8	1
26	219	3.9	1
26	220	4	1
26	221	4.1	1
26	222	4.2	1
26	223	4.3	1
26	224	4.4	1
26	225	4.5	1
26	226	4.6	1
26	227	4.7	1
26	228	4.8	1
26	229	4.9	1
26	230	5	1
26	231	5.1	1
26	232	5.2	1
25	2	0.1	29.95
25	3	0.2	29.95
25	4	0.3	29.95
25	5	0.4	29.95
25	6	0.5	29.95
25	7	0.6	29.95
25	8	0.7	29.95
25	9	0.8	29.95
25	10	0.9	29.95
25	11	1	29.95
25	12	1.1	29.95
25	188	1.2	29.95
25	193	1.3	29.95
25	194	1.4	29.95
25	195	1.5	29.95
25	196	1.6	29.95
25	197	1.7	29.95
25	198	1.8	29.95
25	199	1.9	29.95
25	200	2	29.95
25	201	2.1	29.95
25	202	2.2	29.95
25	203	2.3	29.95
25	204	2.4	29.95
25	205	2.5	29.95
25	206	2.6	29.95
25	207	2.7	29.95
25	208	2.8	29.95
25	209	2.9	29.95
25	210	3	29.95
25	211	3.1	29.95
25	212	3.2	29.95
25	213	3.3	29.95
25	214	3.4	29.95
25	215	3.5	29.95
25	216	3.6	29.95
25	217	3.7	29.95
25	218	3.8	29.95
25	219	3.9	29.95
25	220	4	29.95
25	221	4.1	29.95
25	222	4.2	29.95
25	223	4.3	29.95
25	224	4.4	29.95
25	225	4.5	29.95
25	226	4.6	29.95
25	227	4.7	29.95
25	228	4.8	29.95
25	229	4.9	29.95
25	230	5	29.95
25	231	5.1	29.95
25	232	5.2	29.95
24	2	0.1	135.09
24	3	0.2	135.09
24	4	0.3	135.19
24	5	0.4	135.29
24	6	0.5	135.39
24	7	0.6	135.49
24	8	0.7	135.59
24	9	0.8	135.69
24	10	0.9	135.79
24	11	1	135.89
24	12	1.1	135.99
24	188	1.2	136.09
24	193	1.3	136.19
24	194	1.4	136.29
24	195	1.5	136.39
24	196	1.6	136.49
24	197	1.7	136.59
24	198	1.8	136.69
24	199	1.9	136.79
24	200	2	136.89
24	201	2.1	136.99
24	202	2.2	137.09
24	203	2.3	137.19
24	204	2.4	137.29
24	205	2.5	137.39
24	206	2.6	137.49
24	207	2.7	137.59
24	208	2.8	137.69
24	209	2.9	137.79
24	210	3	137.89
24	211	3.1	137.99
24	212	3.2	138.09
24	213	3.3	138.19
24	214	3.4	138.29
24	215	3.5	138.39
24	216	3.6	138.49
24	217	3.7	138.59
24	218	3.8	138.69
24	219	3.9	138.79
24	220	4	138.89
24	221	4.1	138.99
24	222	4.2	139.09
24	223	4.3	139.19
24	224	4.4	139.29
24	225	4.5	139.39
24	226	4.6	139.49
24	227	4.7	139.59
24	228	4.8	139.69
24	229	4.9	139.79
24	230	5	139.89
24	231	5.1	139.99
24	232	5.2	140.09
39	4	0.3	1.15833237888
39	5	0.4	1.15833237888
39	6	0.5	1.15833237888
39	7	0.6	1.15833237888
39	8	0.7	1.15833237888
39	9	0.8	1.15833237888
39	10	0.9	1.15833237888
39	11	1	1.15833237888
39	12	1.1	1.15833237888
39	188	1.2	1.15833237888
39	193	1.3	1.15833237888
39	194	1.4	1.15833237888
39	195	1.5	1.15833237888
39	196	1.6	1.15833237888
39	197	1.7	1.15833237888
39	198	1.8	1.15833237888
39	199	1.9	1.15833237888
39	200	2	1.15833237888
39	201	2.1	1.15833237888
39	202	2.2	1.15833237888
39	203	2.3	1.15833237888
39	204	2.4	1.15833237888
39	205	2.5	1.15833237888
39	206	2.6	1.15833237888
39	207	2.7	1.15833237888
39	208	2.8	1.15833237888
39	209	2.9	1.15833237888
39	210	3	1.15833237888
39	211	3.1	1.15833237888
39	212	3.2	1.15833237888
39	213	3.3	1.15833237888
39	214	3.4	1.15833237888
39	215	3.5	1.15833237888
39	216	3.6	1.15833237888
39	217	3.7	1.15833237888
39	218	3.8	1.15833237888
39	219	3.9	1.15833237888
39	220	4	1.15833237888
39	221	4.1	1.15833237888
39	222	4.2	1.15833237888
39	223	4.3	1.15833237888
39	224	4.4	1.15833237888
39	225	4.5	1.15833237888
39	226	4.6	1.15833237888
39	227	4.7	1.15833237888
39	228	4.8	1.15833237888
39	229	4.9	1.15833237888
39	230	5	1.15833237888
39	231	5.1	1.15833237888
39	232	5.2	1.15833237888
38	4	0.3	0
38	5	0.4	0
38	6	0.5	0
38	7	0.6	0
38	8	0.7	0
38	9	0.8	0
38	10	0.9	0
38	11	1	0
38	12	1.1	0
38	188	1.2	0
38	193	1.3	0
38	194	1.4	0
38	195	1.5	0
38	196	1.6	0
38	197	1.7	0
38	198	1.8	0
38	199	1.9	0
38	200	2	0
38	201	2.1	0
38	202	2.2	0
38	203	2.3	0
38	204	2.4	0
38	205	2.5	0
38	206	2.6	0
38	207	2.7	0
38	208	2.8	0
38	209	2.9	0
38	210	3	0
38	211	3.1	0
38	212	3.2	0
38	213	3.3	0
38	214	3.4	0
38	215	3.5	0
38	216	3.6	0
38	217	3.7	0
38	218	3.8	0
38	219	3.9	0
38	220	4	0
38	221	4.1	0
38	222	4.2	0
38	223	4.3	0
38	224	4.4	0
38	225	4.5	0
38	226	4.6	0
38	227	4.7	0
38	228	4.8	0
38	229	4.9	0
38	230	5	0
38	231	5.1	0
38	232	5.2	0
37	3	0.2	1
37	4	0.3	1
37	5	0.4	1
37	6	0.5	1
37	7	0.6	1
37	8	0.7	1
37	9	0.8	1
37	10	0.9	1
37	11	1	1
37	12	1.1	1
37	188	1.2	1
37	193	1.3	1
37	194	1.4	1
37	195	1.5	1
37	196	1.6	1
37	197	1.7	1
37	198	1.8	1
37	199	1.9	1
37	200	2	1
37	201	2.1	1
37	202	2.2	1
37	203	2.3	1
37	204	2.4	1
37	205	2.5	1
37	206	2.6	1
37	207	2.7	1
37	208	2.8	1
37	209	2.9	1
37	210	3	1
37	211	3.1	1
37	212	3.2	1
37	213	3.3	1
37	214	3.4	1
37	215	3.5	1
37	216	3.6	1
37	217	3.7	1
37	218	3.8	1
37	219	3.9	1
37	220	4	1
37	221	4.1	1
37	222	4.2	1
37	223	4.3	1
37	224	4.4	1
37	225	4.5	1
37	226	4.6	1
37	227	4.7	1
37	228	4.8	1
37	229	4.9	1
37	230	5	1
37	231	5.1	1
37	232	5.2	1
36	2	0.1	33.25
36	3	0.2	33.25
36	4	0.3	33.25
36	5	0.4	33.25
36	6	0.5	33.25
36	7	0.6	33.25
36	8	0.7	33.25
36	9	0.8	33.25
36	10	0.9	33.25
36	11	1	33.25
36	12	1.1	33.25
36	188	1.2	33.25
36	193	1.3	33.25
36	194	1.4	33.25
36	195	1.5	33.25
36	196	1.6	33.25
36	197	1.7	33.25
36	198	1.8	33.25
36	199	1.9	33.25
36	200	2	33.25
36	201	2.1	33.25
36	202	2.2	33.25
36	203	2.3	33.25
36	204	2.4	33.25
36	205	2.5	33.25
36	206	2.6	33.25
36	207	2.7	33.25
36	208	2.8	33.25
36	209	2.9	33.25
36	210	3	33.25
36	211	3.1	33.25
36	212	3.2	33.25
36	213	3.3	33.25
36	214	3.4	33.25
36	215	3.5	33.25
36	216	3.6	33.25
36	217	3.7	33.25
36	218	3.8	33.25
36	219	3.9	33.25
36	220	4	33.25
36	221	4.1	33.25
36	222	4.2	33.25
36	223	4.3	33.25
36	224	4.4	33.25
36	225	4.5	33.25
36	226	4.6	33.25
36	227	4.7	33.25
36	228	4.8	33.25
36	229	4.9	33.25
36	230	5	33.25
36	231	5.1	33.25
36	232	5.2	33.25
35	2	0.1	85.09
35	3	0.2	85.09
35	4	0.3	85.19
35	5	0.4	85.29
35	6	0.5	85.39
35	7	0.6	85.49
35	8	0.7	85.59
35	9	0.8	85.69
35	10	0.9	85.79
35	11	1	85.89
35	12	1.1	85.99
35	188	1.2	86.09
35	193	1.3	86.19
35	194	1.4	86.29
35	195	1.5	86.39
35	196	1.6	86.49
35	197	1.7	86.59
35	198	1.8	86.69
35	199	1.9	86.79
35	200	2	86.89
35	201	2.1	86.99
35	202	2.2	87.09
35	203	2.3	87.19
35	204	2.4	87.29
35	205	2.5	87.39
35	206	2.6	87.489999999999
35	207	2.7	87.589999999999
35	208	2.8	87.689999999999
35	209	2.9	87.789999999999
35	210	3	87.889999999999
35	211	3.1	87.989999999999
35	212	3.2	88.089999999999
35	213	3.3	88.189999999999
35	214	3.4	88.289999999999
35	215	3.5	88.389999999999
35	216	3.6	88.489999999999
35	217	3.7	88.589999999999
35	218	3.8	88.689999999999
35	219	3.9	88.789999999999
35	220	4	88.889999999999
35	221	4.1	88.989999999999
35	222	4.2	89.089999999999
35	223	4.3	89.189999999999
35	224	4.4	89.289999999999
35	225	4.5	89.389999999999
35	226	4.6	89.489999999999
35	227	4.7	89.59
35	228	4.8	89.69
35	229	4.9	89.79
35	230	5	89.89
35	231	5.1	89.99
35	232	5.2	90.09
50	4	0.3	1.15833237888
50	5	0.4	1.15833237888
50	6	0.5	1.15833237888
50	7	0.6	1.15833237888
50	8	0.7	1.15833237888
50	9	0.8	1.15833237888
50	10	0.9	1.15833237888
50	11	1	1.15833237888
50	12	1.1	1.15833237888
50	188	1.2	1.15833237888
50	193	1.3	1.15833237888
50	194	1.4	1.15833237888
50	195	1.5	1.15833237888
50	196	1.6	1.15833237888
50	197	1.7	1.15833237888
50	198	1.8	1.15833237888
50	199	1.9	1.15833237888
50	200	2	1.15833237888
50	201	2.1	1.15833237888
50	202	2.2	1.15833237888
50	203	2.3	1.15833237888
50	204	2.4	1.15833237888
50	205	2.5	1.15833237888
50	206	2.6	1.15833237888
50	207	2.7	1.15833237888
50	208	2.8	1.15833237888
50	209	2.9	1.15833237888
50	210	3	1.15833237888
50	211	3.1	1.15833237888
50	212	3.2	1.15833237888
50	213	3.3	1.15833237888
50	214	3.4	1.15833237888
50	215	3.5	1.15833237888
50	216	3.6	1.15833237888
50	217	3.7	1.15833237888
50	218	3.8	1.15833237888
50	219	3.9	1.15833237888
50	220	4	1.15833237888
50	221	4.1	1.15833237888
50	222	4.2	1.15833237888
50	223	4.3	1.15833237888
50	224	4.4	1.15833237888
50	225	4.5	1.15833237888
50	226	4.6	1.15833237888
50	227	4.7	1.15833237888
50	228	4.8	1.15833237888
50	229	4.9	1.15833237888
50	230	5	1.15833237888
50	231	5.1	1.15833237888
50	232	5.2	1.15833237888
49	4	0.3	0
49	5	0.4	0
49	6	0.5	0
49	7	0.6	0
49	8	0.7	0
49	9	0.8	0
49	10	0.9	0
49	11	1	0
49	12	1.1	0
49	188	1.2	0
49	193	1.3	0
49	194	1.4	0
49	195	1.5	0
49	196	1.6	0
49	197	1.7	0
49	198	1.8	0
49	199	1.9	0
49	200	2	0
49	201	2.1	0
49	202	2.2	0
49	203	2.3	0
49	204	2.4	0
49	205	2.5	0
49	206	2.6	0
49	207	2.7	0
49	208	2.8	0
49	209	2.9	0
49	210	3	0
49	211	3.1	0
49	212	3.2	0
49	213	3.3	0
49	214	3.4	0
49	215	3.5	0
49	216	3.6	0
49	217	3.7	0
49	218	3.8	0
49	219	3.9	0
49	220	4	0
49	221	4.1	0
49	222	4.2	0
49	223	4.3	0
49	224	4.4	0
49	225	4.5	0
49	226	4.6	0
49	227	4.7	0
49	228	4.8	0
49	229	4.9	0
49	230	5	0
49	231	5.1	0
49	232	5.2	0
48	3	0.2	1
48	4	0.3	1
48	5	0.4	1
48	6	0.5	1
48	7	0.6	1
48	8	0.7	1
48	9	0.8	1
48	10	0.9	1
48	11	1	1
48	12	1.1	1
48	188	1.2	1
48	193	1.3	1
48	194	1.4	1
48	195	1.5	1
48	196	1.6	1
48	197	1.7	1
48	198	1.8	1
48	199	1.9	1
48	200	2	1
48	201	2.1	1
48	202	2.2	1
48	203	2.3	1
48	204	2.4	1
48	205	2.5	1
48	206	2.6	1
48	207	2.7	1
48	208	2.8	1
48	209	2.9	1
48	210	3	1
48	211	3.1	1
48	212	3.2	1
48	213	3.3	1
48	214	3.4	1
48	215	3.5	1
48	216	3.6	1
48	217	3.7	1
48	218	3.8	1
48	219	3.9	1
48	220	4	1
48	221	4.1	1
48	222	4.2	1
48	223	4.3	1
48	224	4.4	1
48	225	4.5	1
48	226	4.6	1
48	227	4.7	1
48	228	4.8	1
48	229	4.9	1
48	230	5	1
48	231	5.1	1
48	232	5.2	1
47	2	0.1	29.95
47	3	0.2	29.95
47	4	0.3	29.95
47	5	0.4	29.95
47	6	0.5	29.95
47	7	0.6	29.95
47	8	0.7	29.95
47	9	0.8	29.95
47	10	0.9	29.95
47	11	1	29.95
47	12	1.1	29.95
47	188	1.2	29.95
47	193	1.3	29.95
47	194	1.4	29.95
47	195	1.5	29.95
47	196	1.6	29.95
47	197	1.7	29.95
47	198	1.8	29.95
47	199	1.9	29.95
47	200	2	29.95
47	201	2.1	29.95
47	202	2.2	29.95
47	203	2.3	29.95
47	204	2.4	29.95
47	205	2.5	29.95
47	206	2.6	29.95
47	207	2.7	29.95
47	208	2.8	29.95
47	209	2.9	29.95
47	210	3	29.95
47	211	3.1	29.95
47	212	3.2	29.95
47	213	3.3	29.95
47	214	3.4	29.95
47	215	3.5	29.95
47	216	3.6	29.95
47	217	3.7	29.95
47	218	3.8	29.95
47	219	3.9	29.95
47	220	4	29.95
47	221	4.1	29.95
47	222	4.2	29.95
47	223	4.3	29.95
47	224	4.4	29.95
47	225	4.5	29.95
47	226	4.6	29.95
47	227	4.7	29.95
47	228	4.8	29.95
47	229	4.9	29.95
47	230	5	29.95
47	231	5.1	29.95
47	232	5.2	29.95
46	2	0.1	85.09
46	3	0.2	85.09
46	4	0.3	85.19
46	5	0.4	85.29
46	6	0.5	85.39
46	7	0.6	85.49
46	8	0.7	85.59
46	9	0.8	85.69
46	10	0.9	85.79
46	11	1	85.89
46	12	1.1	85.99
46	188	1.2	86.09
46	193	1.3	86.19
46	194	1.4	86.29
46	195	1.5	86.39
46	196	1.6	86.49
46	197	1.7	86.59
46	198	1.8	86.69
46	199	1.9	86.79
46	200	2	86.89
46	201	2.1	86.99
46	202	2.2	87.09
46	203	2.3	87.19
46	204	2.4	87.29
46	205	2.5	87.39
46	206	2.6	87.489999999999
46	207	2.7	87.589999999999
46	208	2.8	87.689999999999
46	209	2.9	87.789999999999
46	210	3	87.889999999999
46	211	3.1	87.989999999999
46	212	3.2	88.089999999999
46	213	3.3	88.189999999999
46	214	3.4	88.289999999999
46	215	3.5	88.389999999999
46	216	3.6	88.489999999999
46	217	3.7	88.589999999999
46	218	3.8	88.689999999999
46	219	3.9	88.789999999999
46	220	4	88.889999999999
46	221	4.1	88.989999999999
46	222	4.2	89.089999999999
46	223	4.3	89.189999999999
46	224	4.4	89.289999999999
46	225	4.5	89.389999999999
46	226	4.6	89.489999999999
46	227	4.7	89.59
46	228	4.8	89.69
46	229	4.9	89.79
46	230	5	89.89
46	231	5.1	89.99
46	232	5.2	90.09
61	4	0.3	1.15833237888
61	5	0.4	1.15833237888
61	6	0.5	1.15833237888
61	7	0.6	1.15833237888
61	8	0.7	1.15833237888
61	9	0.8	1.15833237888
61	10	0.9	1.15833237888
61	11	1	1.15833237888
61	12	1.1	1.15833237888
61	188	1.2	1.15833237888
61	193	1.3	1.15833237888
61	194	1.4	1.15833237888
61	195	1.5	1.15833237888
61	196	1.6	1.15833237888
61	197	1.7	1.15833237888
61	198	1.8	1.15833237888
61	199	1.9	1.15833237888
61	200	2	1.15833237888
61	201	2.1	1.15833237888
61	202	2.2	1.15833237888
61	203	2.3	1.15833237888
61	204	2.4	1.15833237888
61	205	2.5	1.15833237888
61	206	2.6	1.15833237888
61	207	2.7	1.15833237888
61	208	2.8	1.15833237888
61	209	2.9	1.15833237888
61	210	3	1.15833237888
61	211	3.1	1.15833237888
61	212	3.2	1.15833237888
61	213	3.3	1.15833237888
61	214	3.4	1.15833237888
61	215	3.5	1.15833237888
61	216	3.6	1.15833237888
61	217	3.7	1.15833237888
61	218	3.8	1.15833237888
61	219	3.9	1.15833237888
61	220	4	1.15833237888
61	221	4.1	1.15833237888
61	222	4.2	1.15833237888
61	223	4.3	1.15833237888
61	224	4.4	1.15833237888
61	225	4.5	1.15833237888
61	226	4.6	1.15833237888
61	227	4.7	1.15833237888
61	228	4.8	1.15833237888
61	229	4.9	1.15833237888
61	230	5	1.15833237888
61	231	5.1	1.15833237888
61	232	5.2	1.15833237888
60	4	0.3	0
60	5	0.4	0
60	6	0.5	0
60	7	0.6	0
60	8	0.7	0
60	9	0.8	0
60	10	0.9	0
60	11	1	0
60	12	1.1	0
60	188	1.2	0
60	193	1.3	0
60	194	1.4	0
60	195	1.5	0
60	196	1.6	0
60	197	1.7	0
60	198	1.8	0
60	199	1.9	0
60	200	2	0
60	201	2.1	0
60	202	2.2	0
60	203	2.3	0
60	204	2.4	0
60	205	2.5	0
60	206	2.6	0
60	207	2.7	0
60	208	2.8	0
60	209	2.9	0
60	210	3	0
60	211	3.1	0
60	212	3.2	0
60	213	3.3	0
60	214	3.4	0
60	215	3.5	0
60	216	3.6	0
60	217	3.7	0
60	218	3.8	0
60	219	3.9	0
60	220	4	0
60	221	4.1	0
60	222	4.2	0
60	223	4.3	0
60	224	4.4	0
60	225	4.5	0
60	226	4.6	0
60	227	4.7	0
60	228	4.8	0
60	229	4.9	0
60	230	5	0
60	231	5.1	0
60	232	5.2	0
59	3	0.2	1
59	4	0.3	1
59	5	0.4	1
59	6	0.5	1
59	7	0.6	1
59	8	0.7	1
59	9	0.8	1
59	10	0.9	1
59	11	1	1
59	12	1.1	1
59	188	1.2	1
59	193	1.3	1
59	194	1.4	1
59	195	1.5	1
59	196	1.6	1
59	197	1.7	1
59	198	1.8	1
59	199	1.9	1
59	200	2	1
59	201	2.1	1
59	202	2.2	1
59	203	2.3	1
59	204	2.4	1
59	205	2.5	1
59	206	2.6	1
59	207	2.7	1
59	208	2.8	1
59	209	2.9	1
59	210	3	1
59	211	3.1	1
59	212	3.2	1
59	213	3.3	1
59	214	3.4	1
59	215	3.5	1
59	216	3.6	1
59	217	3.7	1
59	218	3.8	1
59	219	3.9	1
59	220	4	1
59	221	4.1	1
59	222	4.2	1
59	223	4.3	1
59	224	4.4	1
59	225	4.5	1
59	226	4.6	1
59	227	4.7	1
59	228	4.8	1
59	229	4.9	1
59	230	5	1
59	231	5.1	1
59	232	5.2	1
58	2	0.1	26.65
58	3	0.2	26.65
58	4	0.3	26.65
58	5	0.4	26.65
58	6	0.5	26.65
58	7	0.6	26.65
58	8	0.7	26.65
58	9	0.8	26.65
58	10	0.9	26.65
58	11	1	26.65
58	12	1.1	26.65
58	188	1.2	26.65
58	193	1.3	26.65
58	194	1.4	26.65
58	195	1.5	26.65
58	196	1.6	26.65
58	197	1.7	26.65
58	198	1.8	26.65
58	199	1.9	26.65
58	200	2	26.65
58	201	2.1	26.65
58	202	2.2	26.65
58	203	2.3	26.65
58	204	2.4	26.65
58	205	2.5	26.65
58	206	2.6	26.65
58	207	2.7	26.65
58	208	2.8	26.65
58	209	2.9	26.65
58	210	3	26.65
58	211	3.1	26.65
58	212	3.2	26.65
58	213	3.3	26.65
58	214	3.4	26.65
58	215	3.5	26.65
58	216	3.6	26.65
58	217	3.7	26.65
58	218	3.8	26.65
58	219	3.9	26.65
58	220	4	26.65
58	221	4.1	26.65
58	222	4.2	26.65
58	223	4.3	26.65
58	224	4.4	26.65
58	225	4.5	26.65
58	226	4.6	26.65
58	227	4.7	26.65
58	228	4.8	26.65
58	229	4.9	26.65
58	230	5	26.65
58	231	5.1	26.65
58	232	5.2	26.65
57	2	0.1	85.09
57	3	0.2	85.09
57	4	0.3	85.19
57	5	0.4	85.29
57	6	0.5	85.39
57	7	0.6	85.49
57	8	0.7	85.59
57	9	0.8	85.69
57	10	0.9	85.79
57	11	1	85.89
57	12	1.1	85.99
57	188	1.2	86.09
57	193	1.3	86.19
57	194	1.4	86.29
57	195	1.5	86.39
57	196	1.6	86.49
57	197	1.7	86.59
57	198	1.8	86.69
57	199	1.9	86.79
57	200	2	86.89
57	201	2.1	86.99
57	202	2.2	87.09
57	203	2.3	87.19
57	204	2.4	87.29
57	205	2.5	87.39
57	206	2.6	87.489999999999
57	207	2.7	87.589999999999
57	208	2.8	87.689999999999
57	209	2.9	87.789999999999
57	210	3	87.889999999999
57	211	3.1	87.989999999999
57	212	3.2	88.089999999999
57	213	3.3	88.189999999999
57	214	3.4	88.289999999999
57	215	3.5	88.389999999999
57	216	3.6	88.489999999999
57	217	3.7	88.589999999999
57	218	3.8	88.689999999999
57	219	3.9	88.789999999999
57	220	4	88.889999999999
57	221	4.1	88.989999999999
57	222	4.2	89.089999999999
57	223	4.3	89.189999999999
57	224	4.4	89.289999999999
57	225	4.5	89.389999999999
57	226	4.6	89.489999999999
57	227	4.7	89.59
57	228	4.8	89.69
57	229	4.9	89.79
57	230	5	89.89
57	231	5.1	89.99
57	232	5.2	90.09
72	4	0.3	1.15833237888
72	5	0.4	1.15833237888
72	6	0.5	1.15833237888
72	7	0.6	1.15833237888
72	8	0.7	1.15833237888
72	9	0.8	1.15833237888
72	10	0.9	1.15833237888
72	11	1	1.15833237888
72	12	1.1	1.15833237888
72	188	1.2	1.15833237888
72	193	1.3	1.15833237888
72	194	1.4	1.15833237888
72	195	1.5	1.15833237888
72	196	1.6	1.15833237888
72	197	1.7	1.15833237888
72	198	1.8	1.15833237888
72	199	1.9	1.15833237888
72	200	2	1.15833237888
72	201	2.1	1.15833237888
72	202	2.2	1.15833237888
72	203	2.3	1.15833237888
72	204	2.4	1.15833237888
72	205	2.5	1.15833237888
72	206	2.6	1.15833237888
72	207	2.7	1.15833237888
72	208	2.8	1.15833237888
72	209	2.9	1.15833237888
72	210	3	1.15833237888
72	211	3.1	1.15833237888
72	212	3.2	1.15833237888
72	213	3.3	1.15833237888
72	214	3.4	1.15833237888
72	215	3.5	1.15833237888
72	216	3.6	1.15833237888
72	217	3.7	1.15833237888
72	218	3.8	1.15833237888
72	219	3.9	1.15833237888
72	220	4	1.15833237888
72	221	4.1	1.15833237888
72	222	4.2	1.15833237888
72	223	4.3	1.15833237888
72	224	4.4	1.15833237888
72	225	4.5	1.15833237888
72	226	4.6	1.15833237888
72	227	4.7	1.15833237888
72	228	4.8	1.15833237888
72	229	4.9	1.15833237888
72	230	5	1.15833237888
72	231	5.1	1.15833237888
72	232	5.2	1.15833237888
71	4	0.3	0
71	5	0.4	0
71	6	0.5	0
71	7	0.6	0
71	8	0.7	0
71	9	0.8	0
71	10	0.9	0
71	11	1	0
71	12	1.1	0
71	188	1.2	0
71	193	1.3	0
71	194	1.4	0
71	195	1.5	0
71	196	1.6	0
71	197	1.7	0
71	198	1.8	0
71	199	1.9	0
71	200	2	0
71	201	2.1	0
71	202	2.2	0
71	203	2.3	0
71	204	2.4	0
71	205	2.5	0
71	206	2.6	0
71	207	2.7	0
71	208	2.8	0
71	209	2.9	0
71	210	3	0
71	211	3.1	0
71	212	3.2	0
71	213	3.3	0
71	214	3.4	0
71	215	3.5	0
71	216	3.6	0
71	217	3.7	0
71	218	3.8	0
71	219	3.9	0
71	220	4	0
71	221	4.1	0
71	222	4.2	0
71	223	4.3	0
71	224	4.4	0
71	225	4.5	0
71	226	4.6	0
71	227	4.7	0
71	228	4.8	0
71	229	4.9	0
71	230	5	0
71	231	5.1	0
71	232	5.2	0
70	3	0.2	1
70	4	0.3	1
70	5	0.4	1
70	6	0.5	1
70	7	0.6	1
70	8	0.7	1
70	9	0.8	1
70	10	0.9	1
70	11	1	1
70	12	1.1	1
70	188	1.2	1
70	193	1.3	1
70	194	1.4	1
70	195	1.5	1
70	196	1.6	1
70	197	1.7	1
70	198	1.8	1
70	199	1.9	1
70	200	2	1
70	201	2.1	1
70	202	2.2	1
70	203	2.3	1
70	204	2.4	1
70	205	2.5	1
70	206	2.6	1
70	207	2.7	1
70	208	2.8	1
70	209	2.9	1
70	210	3	1
70	211	3.1	1
70	212	3.2	1
70	213	3.3	1
70	214	3.4	1
70	215	3.5	1
70	216	3.6	1
70	217	3.7	1
70	218	3.8	1
70	219	3.9	1
70	220	4	1
70	221	4.1	1
70	222	4.2	1
70	223	4.3	1
70	224	4.4	1
70	225	4.5	1
70	226	4.6	1
70	227	4.7	1
70	228	4.8	1
70	229	4.9	1
70	230	5	1
70	231	5.1	1
70	232	5.2	1
69	2	0.1	33.25
69	3	0.2	33.25
69	4	0.3	33.25
69	5	0.4	33.25
69	6	0.5	33.25
69	7	0.6	33.25
69	8	0.7	33.25
69	9	0.8	33.25
69	10	0.9	33.25
69	11	1	33.25
69	12	1.1	33.25
69	188	1.2	33.25
69	193	1.3	33.25
69	194	1.4	33.25
69	195	1.5	33.25
69	196	1.6	33.25
69	197	1.7	33.25
69	198	1.8	33.25
69	199	1.9	33.25
69	200	2	33.25
69	201	2.1	33.25
69	202	2.2	33.25
69	203	2.3	33.25
69	204	2.4	33.25
69	205	2.5	33.25
69	206	2.6	33.25
69	207	2.7	33.25
69	208	2.8	33.25
69	209	2.9	33.25
69	210	3	33.25
69	211	3.1	33.25
69	212	3.2	33.25
69	213	3.3	33.25
69	214	3.4	33.25
69	215	3.5	33.25
69	216	3.6	33.25
69	217	3.7	33.25
69	218	3.8	33.25
69	219	3.9	33.25
69	220	4	33.25
69	221	4.1	33.25
69	222	4.2	33.25
69	223	4.3	33.25
69	224	4.4	33.25
69	225	4.5	33.25
69	226	4.6	33.25
69	227	4.7	33.25
69	228	4.8	33.25
69	229	4.9	33.25
69	230	5	33.25
69	231	5.1	33.25
69	232	5.2	33.25
68	2	0.1	425.09
68	3	0.2	425.09
68	4	0.3	425.19
68	5	0.4	425.29
68	6	0.5	425.39
68	7	0.6	425.49
68	8	0.7	425.59
68	9	0.8	425.69
68	10	0.9	425.79
68	11	1	425.89
68	12	1.1	425.99
68	188	1.2	426.09
68	193	1.3	426.19
68	194	1.4	426.29
68	195	1.5	426.39
68	196	1.6	426.49
68	197	1.7	426.59
68	198	1.8	426.69
68	199	1.9	426.79
68	200	2	426.89
68	201	2.1	426.99
68	202	2.2	427.09
68	203	2.3	427.19
68	204	2.4	427.29
68	205	2.5	427.39
68	206	2.6	427.49
68	207	2.7	427.59
68	208	2.8	427.69
68	209	2.9	427.79
68	210	3	427.89
68	211	3.1	427.99
68	212	3.2	428.09
68	213	3.3	428.19
68	214	3.4	428.29
68	215	3.5	428.39
68	216	3.6	428.49
68	217	3.7	428.59
68	218	3.8	428.69
68	219	3.9	428.79
68	220	4	428.89
68	221	4.1	428.99
68	222	4.2	429.09
68	223	4.3	429.19
68	224	4.4	429.29
68	225	4.5	429.39
68	226	4.6	429.49
68	227	4.7	429.59
68	228	4.8	429.69
68	229	4.9	429.79
68	230	5	429.89
68	231	5.1	429.99
68	232	5.2	430.09
83	4	0.3	1.15833237888
83	5	0.4	1.15833237888
83	6	0.5	1.15833237888
83	7	0.6	1.15833237888
83	8	0.7	1.15833237888
83	9	0.8	1.15833237888
83	10	0.9	1.15833237888
83	11	1	1.15833237888
83	12	1.1	1.15833237888
83	188	1.2	1.15833237888
83	193	1.3	1.15833237888
83	194	1.4	1.15833237888
83	195	1.5	1.15833237888
83	196	1.6	1.15833237888
83	197	1.7	1.15833237888
83	198	1.8	1.15833237888
83	199	1.9	1.15833237888
83	200	2	1.15833237888
83	201	2.1	1.15833237888
83	202	2.2	1.15833237888
83	203	2.3	1.15833237888
83	204	2.4	1.15833237888
83	205	2.5	1.15833237888
83	206	2.6	1.15833237888
83	207	2.7	1.15833237888
83	208	2.8	1.15833237888
83	209	2.9	1.15833237888
83	210	3	1.15833237888
83	211	3.1	1.15833237888
83	212	3.2	1.15833237888
83	213	3.3	1.15833237888
83	214	3.4	1.15833237888
83	215	3.5	1.15833237888
83	216	3.6	1.15833237888
83	217	3.7	1.15833237888
83	218	3.8	1.15833237888
83	219	3.9	1.15833237888
83	220	4	1.15833237888
83	221	4.1	1.15833237888
83	222	4.2	1.15833237888
83	223	4.3	1.15833237888
83	224	4.4	1.15833237888
83	225	4.5	1.15833237888
83	226	4.6	1.15833237888
83	227	4.7	1.15833237888
83	228	4.8	1.15833237888
83	229	4.9	1.15833237888
83	230	5	1.15833237888
83	231	5.1	1.15833237888
83	232	5.2	1.15833237888
82	4	0.3	0
82	5	0.4	0
82	6	0.5	0
82	7	0.6	0
82	8	0.7	0
82	9	0.8	0
82	10	0.9	0
82	11	1	0
82	12	1.1	0
82	188	1.2	0
82	193	1.3	0
82	194	1.4	0
82	195	1.5	0
82	196	1.6	0
82	197	1.7	0
82	198	1.8	0
82	199	1.9	0
82	200	2	0
82	201	2.1	0
82	202	2.2	0
82	203	2.3	0
82	204	2.4	0
82	205	2.5	0
82	206	2.6	0
82	207	2.7	0
82	208	2.8	0
82	209	2.9	0
82	210	3	0
82	211	3.1	0
82	212	3.2	0
82	213	3.3	0
82	214	3.4	0
82	215	3.5	0
82	216	3.6	0
82	217	3.7	0
82	218	3.8	0
82	219	3.9	0
82	220	4	0
82	221	4.1	0
82	222	4.2	0
82	223	4.3	0
82	224	4.4	0
82	225	4.5	0
82	226	4.6	0
82	227	4.7	0
82	228	4.8	0
82	229	4.9	0
82	230	5	0
82	231	5.1	0
82	232	5.2	0
81	3	0.2	1
81	4	0.3	1
81	5	0.4	1
81	6	0.5	1
81	7	0.6	1
81	8	0.7	1
81	9	0.8	1
81	10	0.9	1
81	11	1	1
81	12	1.1	1
81	188	1.2	1
81	193	1.3	1
81	194	1.4	1
81	195	1.5	1
81	196	1.6	1
81	197	1.7	1
81	198	1.8	1
81	199	1.9	1
81	200	2	1
81	201	2.1	1
81	202	2.2	1
81	203	2.3	1
81	204	2.4	1
81	205	2.5	1
81	206	2.6	1
81	207	2.7	1
81	208	2.8	1
81	209	2.9	1
81	210	3	1
81	211	3.1	1
81	212	3.2	1
81	213	3.3	1
81	214	3.4	1
81	215	3.5	1
81	216	3.6	1
81	217	3.7	1
81	218	3.8	1
81	219	3.9	1
81	220	4	1
81	221	4.1	1
81	222	4.2	1
81	223	4.3	1
81	224	4.4	1
81	225	4.5	1
81	226	4.6	1
81	227	4.7	1
81	228	4.8	1
81	229	4.9	1
81	230	5	1
81	231	5.1	1
81	232	5.2	1
80	2	0.1	29.95
80	3	0.2	29.95
80	4	0.3	29.95
80	5	0.4	29.95
80	6	0.5	29.95
80	7	0.6	29.95
80	8	0.7	29.95
80	9	0.8	29.95
80	10	0.9	29.95
80	11	1	29.95
80	12	1.1	29.95
80	188	1.2	29.95
80	193	1.3	29.95
80	194	1.4	29.95
80	195	1.5	29.95
80	196	1.6	29.95
80	197	1.7	29.95
80	198	1.8	29.95
80	199	1.9	29.95
80	200	2	29.95
80	201	2.1	29.95
80	202	2.2	29.95
80	203	2.3	29.95
80	204	2.4	29.95
80	205	2.5	29.95
80	206	2.6	29.95
80	207	2.7	29.95
80	208	2.8	29.95
80	209	2.9	29.95
80	210	3	29.95
80	211	3.1	29.95
80	212	3.2	29.95
80	213	3.3	29.95
80	214	3.4	29.95
80	215	3.5	29.95
80	216	3.6	29.95
80	217	3.7	29.95
80	218	3.8	29.95
80	219	3.9	29.95
80	220	4	29.95
80	221	4.1	29.95
80	222	4.2	29.95
80	223	4.3	29.95
80	224	4.4	29.95
80	225	4.5	29.95
80	226	4.6	29.95
80	227	4.7	29.95
80	228	4.8	29.95
80	229	4.9	29.95
80	230	5	29.95
80	231	5.1	29.95
80	232	5.2	29.95
79	2	0.1	425.09
79	3	0.2	425.09
79	4	0.3	425.19
79	5	0.4	425.29
79	6	0.5	425.39
79	7	0.6	425.49
79	8	0.7	425.59
79	9	0.8	425.69
79	10	0.9	425.79
79	11	1	425.89
79	12	1.1	425.99
79	188	1.2	426.09
79	193	1.3	426.19
79	194	1.4	426.29
79	195	1.5	426.39
79	196	1.6	426.49
79	197	1.7	426.59
79	198	1.8	426.69
79	199	1.9	426.79
79	200	2	426.89
79	201	2.1	426.99
79	202	2.2	427.09
79	203	2.3	427.19
79	204	2.4	427.29
79	205	2.5	427.39
79	206	2.6	427.49
79	207	2.7	427.59
79	208	2.8	427.69
79	209	2.9	427.79
79	210	3	427.89
79	211	3.1	427.99
79	212	3.2	428.09
79	213	3.3	428.19
79	214	3.4	428.29
79	215	3.5	428.39
79	216	3.6	428.49
79	217	3.7	428.59
79	218	3.8	428.69
79	219	3.9	428.79
79	220	4	428.89
79	221	4.1	428.99
79	222	4.2	429.09
79	223	4.3	429.19
79	224	4.4	429.29
79	225	4.5	429.39
79	226	4.6	429.49
79	227	4.7	429.59
79	228	4.8	429.69
79	229	4.9	429.79
79	230	5	429.89
79	231	5.1	429.99
79	232	5.2	430.09
94	4	0.3	1.15833237888
94	5	0.4	1.15833237888
94	6	0.5	1.15833237888
94	7	0.6	1.15833237888
94	8	0.7	1.15833237888
94	9	0.8	1.15833237888
94	10	0.9	1.15833237888
94	11	1	1.15833237888
94	12	1.1	1.15833237888
94	188	1.2	1.15833237888
94	193	1.3	1.15833237888
94	194	1.4	1.15833237888
94	195	1.5	1.15833237888
94	196	1.6	1.15833237888
94	197	1.7	1.15833237888
94	198	1.8	1.15833237888
94	199	1.9	1.15833237888
94	200	2	1.15833237888
94	201	2.1	1.15833237888
94	202	2.2	1.15833237888
94	203	2.3	1.15833237888
94	204	2.4	1.15833237888
94	205	2.5	1.15833237888
94	206	2.6	1.15833237888
94	207	2.7	1.15833237888
94	208	2.8	1.15833237888
94	209	2.9	1.15833237888
94	210	3	1.15833237888
94	211	3.1	1.15833237888
94	212	3.2	1.15833237888
94	213	3.3	1.15833237888
94	214	3.4	1.15833237888
94	215	3.5	1.15833237888
94	216	3.6	1.15833237888
94	217	3.7	1.15833237888
94	218	3.8	1.15833237888
94	219	3.9	1.15833237888
94	220	4	1.15833237888
94	221	4.1	1.15833237888
94	222	4.2	1.15833237888
94	223	4.3	1.15833237888
94	224	4.4	1.15833237888
94	225	4.5	1.15833237888
94	226	4.6	1.15833237888
94	227	4.7	1.15833237888
94	228	4.8	1.15833237888
94	229	4.9	1.15833237888
94	230	5	1.15833237888
94	231	5.1	1.15833237888
94	232	5.2	1.15833237888
93	4	0.3	0
93	5	0.4	0
93	6	0.5	0
93	7	0.6	0
93	8	0.7	0
93	9	0.8	0
93	10	0.9	0
93	11	1	0
93	12	1.1	0
93	188	1.2	0
93	193	1.3	0
93	194	1.4	0
93	195	1.5	0
93	196	1.6	0
93	197	1.7	0
93	198	1.8	0
93	199	1.9	0
93	200	2	0
93	201	2.1	0
93	202	2.2	0
93	203	2.3	0
93	204	2.4	0
93	205	2.5	0
93	206	2.6	0
93	207	2.7	0
93	208	2.8	0
93	209	2.9	0
93	210	3	0
93	211	3.1	0
93	212	3.2	0
93	213	3.3	0
93	214	3.4	0
93	215	3.5	0
93	216	3.6	0
93	217	3.7	0
93	218	3.8	0
93	219	3.9	0
93	220	4	0
93	221	4.1	0
93	222	4.2	0
93	223	4.3	0
93	224	4.4	0
93	225	4.5	0
93	226	4.6	0
93	227	4.7	0
93	228	4.8	0
93	229	4.9	0
93	230	5	0
93	231	5.1	0
93	232	5.2	0
92	3	0.2	1
92	4	0.3	1
92	5	0.4	1
92	6	0.5	1
92	7	0.6	1
92	8	0.7	1
92	9	0.8	1
92	10	0.9	1
92	11	1	1
92	12	1.1	1
92	188	1.2	1
92	193	1.3	1
92	194	1.4	1
92	195	1.5	1
92	196	1.6	1
92	197	1.7	1
92	198	1.8	1
92	199	1.9	1
92	200	2	1
92	201	2.1	1
92	202	2.2	1
92	203	2.3	1
92	204	2.4	1
92	205	2.5	1
92	206	2.6	1
92	207	2.7	1
92	208	2.8	1
92	209	2.9	1
92	210	3	1
92	211	3.1	1
92	212	3.2	1
92	213	3.3	1
92	214	3.4	1
92	215	3.5	1
92	216	3.6	1
92	217	3.7	1
92	218	3.8	1
92	219	3.9	1
92	220	4	1
92	221	4.1	1
92	222	4.2	1
92	223	4.3	1
92	224	4.4	1
92	225	4.5	1
92	226	4.6	1
92	227	4.7	1
92	228	4.8	1
92	229	4.9	1
92	230	5	1
92	231	5.1	1
92	232	5.2	1
91	2	0.1	26.65
91	3	0.2	26.65
91	4	0.3	26.65
91	5	0.4	26.65
91	6	0.5	26.65
91	7	0.6	26.65
91	8	0.7	26.65
91	9	0.8	26.65
91	10	0.9	26.65
91	11	1	26.65
91	12	1.1	26.65
91	188	1.2	26.65
91	193	1.3	26.65
91	194	1.4	26.65
91	195	1.5	26.65
91	196	1.6	26.65
91	197	1.7	26.65
91	198	1.8	26.65
91	199	1.9	26.65
91	200	2	26.65
91	201	2.1	26.65
91	202	2.2	26.65
91	203	2.3	26.65
91	204	2.4	26.65
91	205	2.5	26.65
91	206	2.6	26.65
91	207	2.7	26.65
91	208	2.8	26.65
91	209	2.9	26.65
91	210	3	26.65
91	211	3.1	26.65
91	212	3.2	26.65
91	213	3.3	26.65
91	214	3.4	26.65
91	215	3.5	26.65
91	216	3.6	26.65
91	217	3.7	26.65
91	218	3.8	26.65
91	219	3.9	26.65
91	220	4	26.65
91	221	4.1	26.65
91	222	4.2	26.65
91	223	4.3	26.65
91	224	4.4	26.65
91	225	4.5	26.65
91	226	4.6	26.65
91	227	4.7	26.65
91	228	4.8	26.65
91	229	4.9	26.65
91	230	5	26.65
91	231	5.1	26.65
91	232	5.2	26.65
90	2	0.1	425.09
90	3	0.2	425.09
90	4	0.3	425.19
90	5	0.4	425.29
90	6	0.5	425.39
90	7	0.6	425.49
90	8	0.7	425.59
90	9	0.8	425.69
90	10	0.9	425.79
90	11	1	425.89
90	12	1.1	425.99
90	188	1.2	426.09
90	193	1.3	426.19
90	194	1.4	426.29
90	195	1.5	426.39
90	196	1.6	426.49
90	197	1.7	426.59
90	198	1.8	426.69
90	199	1.9	426.79
90	200	2	426.89
90	201	2.1	426.99
90	202	2.2	427.09
90	203	2.3	427.19
90	204	2.4	427.29
90	205	2.5	427.39
90	206	2.6	427.49
90	207	2.7	427.59
90	208	2.8	427.69
90	209	2.9	427.79
90	210	3	427.89
90	211	3.1	427.99
90	212	3.2	428.09
90	213	3.3	428.19
90	214	3.4	428.29
90	215	3.5	428.39
90	216	3.6	428.49
90	217	3.7	428.59
90	218	3.8	428.69
90	219	3.9	428.79
90	220	4	428.89
90	221	4.1	428.99
90	222	4.2	429.09
90	223	4.3	429.19
90	224	4.4	429.29
90	225	4.5	429.39
90	226	4.6	429.49
90	227	4.7	429.59
90	228	4.8	429.69
90	229	4.9	429.79
90	230	5	429.89
90	231	5.1	429.99
90	232	5.2	430.09
105	4	0.3	1.15833237888
105	5	0.4	1.15833237888
105	6	0.5	1.15833237888
105	7	0.6	1.15833237888
105	8	0.7	1.15833237888
105	9	0.8	1.15833237888
105	10	0.9	1.15833237888
105	11	1	1.15833237888
105	12	1.1	1.15833237888
105	188	1.2	1.15833237888
105	193	1.3	1.15833237888
105	194	1.4	1.15833237888
105	195	1.5	1.15833237888
105	196	1.6	1.15833237888
105	197	1.7	1.15833237888
105	198	1.8	1.15833237888
105	199	1.9	1.15833237888
105	200	2	1.15833237888
105	201	2.1	1.15833237888
105	202	2.2	1.15833237888
105	203	2.3	1.15833237888
105	204	2.4	1.15833237888
105	205	2.5	1.15833237888
105	206	2.6	1.15833237888
105	207	2.7	1.15833237888
105	208	2.8	1.15833237888
105	209	2.9	1.15833237888
105	210	3	1.15833237888
105	211	3.1	1.15833237888
105	212	3.2	1.15833237888
105	213	3.3	1.15833237888
105	214	3.4	1.15833237888
105	215	3.5	1.15833237888
105	216	3.6	1.15833237888
105	217	3.7	1.15833237888
105	218	3.8	1.15833237888
105	219	3.9	1.15833237888
105	220	4	1.15833237888
105	221	4.1	1.15833237888
105	222	4.2	1.15833237888
105	223	4.3	1.15833237888
105	224	4.4	1.15833237888
105	225	4.5	1.15833237888
105	226	4.6	1.15833237888
105	227	4.7	1.15833237888
105	228	4.8	1.15833237888
105	229	4.9	1.15833237888
105	230	5	1.15833237888
105	231	5.1	1.15833237888
105	232	5.2	1.15833237888
104	4	0.3	0
104	5	0.4	0
104	6	0.5	0
104	7	0.6	0
104	8	0.7	0
104	9	0.8	0
104	10	0.9	0
104	11	1	0
104	12	1.1	0
104	188	1.2	0
104	193	1.3	0
104	194	1.4	0
104	195	1.5	0
104	196	1.6	0
104	197	1.7	0
104	198	1.8	0
104	199	1.9	0
104	200	2	0
104	201	2.1	0
104	202	2.2	0
104	203	2.3	0
104	204	2.4	0
104	205	2.5	0
104	206	2.6	0
104	207	2.7	0
104	208	2.8	0
104	209	2.9	0
104	210	3	0
104	211	3.1	0
104	212	3.2	0
104	213	3.3	0
104	214	3.4	0
104	215	3.5	0
104	216	3.6	0
104	217	3.7	0
104	218	3.8	0
104	219	3.9	0
104	220	4	0
104	221	4.1	0
104	222	4.2	0
104	223	4.3	0
104	224	4.4	0
104	225	4.5	0
104	226	4.6	0
104	227	4.7	0
104	228	4.8	0
104	229	4.9	0
104	230	5	0
104	231	5.1	0
104	232	5.2	0
103	3	0.2	1
103	4	0.3	1
103	5	0.4	1
103	6	0.5	1
103	7	0.6	1
103	8	0.7	1
103	9	0.8	1
103	10	0.9	1
103	11	1	1
103	12	1.1	1
103	188	1.2	1
103	193	1.3	1
103	194	1.4	1
103	195	1.5	1
103	196	1.6	1
103	197	1.7	1
103	198	1.8	1
103	199	1.9	1
103	200	2	1
103	201	2.1	1
103	202	2.2	1
103	203	2.3	1
103	204	2.4	1
103	205	2.5	1
103	206	2.6	1
103	207	2.7	1
103	208	2.8	1
103	209	2.9	1
103	210	3	1
103	211	3.1	1
103	212	3.2	1
103	213	3.3	1
103	214	3.4	1
103	215	3.5	1
103	216	3.6	1
103	217	3.7	1
103	218	3.8	1
103	219	3.9	1
103	220	4	1
103	221	4.1	1
103	222	4.2	1
103	223	4.3	1
103	224	4.4	1
103	225	4.5	1
103	226	4.6	1
103	227	4.7	1
103	228	4.8	1
103	229	4.9	1
103	230	5	1
103	231	5.1	1
103	232	5.2	1
102	2	0.1	29.95
102	3	0.2	29.95
102	4	0.3	29.95
102	5	0.4	29.95
102	6	0.5	29.95
102	7	0.6	29.95
102	8	0.7	29.95
102	9	0.8	29.95
102	10	0.9	29.95
102	11	1	29.95
102	12	1.1	29.95
102	188	1.2	29.95
102	193	1.3	29.95
102	194	1.4	29.95
102	195	1.5	29.95
102	196	1.6	29.95
102	197	1.7	29.95
102	198	1.8	29.95
102	199	1.9	29.95
102	200	2	29.95
102	201	2.1	29.95
102	202	2.2	29.95
102	203	2.3	29.95
102	204	2.4	29.95
102	205	2.5	29.95
102	206	2.6	29.95
102	207	2.7	29.95
102	208	2.8	29.95
102	209	2.9	29.95
102	210	3	29.95
102	211	3.1	29.95
102	212	3.2	29.95
102	213	3.3	29.95
102	214	3.4	29.95
102	215	3.5	29.95
102	216	3.6	29.95
102	217	3.7	29.95
102	218	3.8	29.95
102	219	3.9	29.95
102	220	4	29.95
102	221	4.1	29.95
102	222	4.2	29.95
102	223	4.3	29.95
102	224	4.4	29.95
102	225	4.5	29.95
102	226	4.6	29.95
102	227	4.7	29.95
102	228	4.8	29.95
102	229	4.9	29.95
102	230	5	29.95
102	231	5.1	29.95
102	232	5.2	29.95
101	2	0.1	325.09
101	3	0.2	325.09
101	4	0.3	325.19
101	5	0.4	325.29
101	6	0.5	325.39
101	7	0.6	325.49
101	8	0.7	325.59
101	9	0.8	325.69
101	10	0.9	325.79
101	11	1	325.89
101	12	1.1	325.99
101	188	1.2	326.09
101	193	1.3	326.19
101	194	1.4	326.29
101	195	1.5	326.39
101	196	1.6	326.49
101	197	1.7	326.59
101	198	1.8	326.69
101	199	1.9	326.79
101	200	2	326.89
101	201	2.1	326.99
101	202	2.2	327.09
101	203	2.3	327.19
101	204	2.4	327.29
101	205	2.5	327.39
101	206	2.6	327.49
101	207	2.7	327.59
101	208	2.8	327.69
101	209	2.9	327.79
101	210	3	327.89
101	211	3.1	327.99
101	212	3.2	328.09
101	213	3.3	328.19
101	214	3.4	328.29
101	215	3.5	328.39
101	216	3.6	328.49
101	217	3.7	328.59
101	218	3.8	328.69
101	219	3.9	328.79
101	220	4	328.89
101	221	4.1	328.99
101	222	4.2	329.09
101	223	4.3	329.19
101	224	4.4	329.29
101	225	4.5	329.39
101	226	4.6	329.49
101	227	4.7	329.59
101	228	4.8	329.69
101	229	4.9	329.79
101	230	5	329.89
101	231	5.1	329.99
101	232	5.2	330.09
116	4	0.3	1.15833237888
116	5	0.4	1.15833237888
116	6	0.5	1.15833237888
116	7	0.6	1.15833237888
116	8	0.7	1.15833237888
116	9	0.8	1.15833237888
116	10	0.9	1.15833237888
116	11	1	1.15833237888
116	12	1.1	1.15833237888
116	188	1.2	1.15833237888
116	193	1.3	1.15833237888
116	194	1.4	1.15833237888
116	195	1.5	1.15833237888
116	196	1.6	1.15833237888
116	197	1.7	1.15833237888
116	198	1.8	1.15833237888
116	199	1.9	1.15833237888
116	200	2	1.15833237888
116	201	2.1	1.15833237888
116	202	2.2	1.15833237888
116	203	2.3	1.15833237888
116	204	2.4	1.15833237888
116	205	2.5	1.15833237888
116	206	2.6	1.15833237888
116	207	2.7	1.15833237888
116	208	2.8	1.15833237888
116	209	2.9	1.15833237888
116	210	3	1.15833237888
116	211	3.1	1.15833237888
116	212	3.2	1.15833237888
116	213	3.3	1.15833237888
116	214	3.4	1.15833237888
116	215	3.5	1.15833237888
116	216	3.6	1.15833237888
116	217	3.7	1.15833237888
116	218	3.8	1.15833237888
116	219	3.9	1.15833237888
116	220	4	1.15833237888
116	221	4.1	1.15833237888
116	222	4.2	1.15833237888
116	223	4.3	1.15833237888
116	224	4.4	1.15833237888
116	225	4.5	1.15833237888
116	226	4.6	1.15833237888
116	227	4.7	1.15833237888
116	228	4.8	1.15833237888
116	229	4.9	1.15833237888
116	230	5	1.15833237888
116	231	5.1	1.15833237888
116	232	5.2	1.15833237888
115	4	0.3	0
115	5	0.4	0
115	6	0.5	0
115	7	0.6	0
115	8	0.7	0
115	9	0.8	0
115	10	0.9	0
115	11	1	0
115	12	1.1	0
115	188	1.2	0
115	193	1.3	0
115	194	1.4	0
115	195	1.5	0
115	196	1.6	0
115	197	1.7	0
115	198	1.8	0
115	199	1.9	0
115	200	2	0
115	201	2.1	0
115	202	2.2	0
115	203	2.3	0
115	204	2.4	0
115	205	2.5	0
115	206	2.6	0
115	207	2.7	0
115	208	2.8	0
115	209	2.9	0
115	210	3	0
115	211	3.1	0
115	212	3.2	0
115	213	3.3	0
115	214	3.4	0
115	215	3.5	0
115	216	3.6	0
115	217	3.7	0
115	218	3.8	0
115	219	3.9	0
115	220	4	0
115	221	4.1	0
115	222	4.2	0
115	223	4.3	0
115	224	4.4	0
115	225	4.5	0
115	226	4.6	0
115	227	4.7	0
115	228	4.8	0
115	229	4.9	0
115	230	5	0
115	231	5.1	0
115	232	5.2	0
114	3	0.2	1
114	4	0.3	1
114	5	0.4	1
114	6	0.5	1
114	7	0.6	1
114	8	0.7	1
114	9	0.8	1
114	10	0.9	1
114	11	1	1
114	12	1.1	1
114	188	1.2	1
114	193	1.3	1
114	194	1.4	1
114	195	1.5	1
114	196	1.6	1
114	197	1.7	1
114	198	1.8	1
114	199	1.9	1
114	200	2	1
114	201	2.1	1
114	202	2.2	1
114	203	2.3	1
114	204	2.4	1
114	205	2.5	1
114	206	2.6	1
114	207	2.7	1
114	208	2.8	1
114	209	2.9	1
114	210	3	1
114	211	3.1	1
114	212	3.2	1
114	213	3.3	1
114	214	3.4	1
114	215	3.5	1
114	216	3.6	1
114	217	3.7	1
114	218	3.8	1
114	219	3.9	1
114	220	4	1
114	221	4.1	1
114	222	4.2	1
114	223	4.3	1
114	224	4.4	1
114	225	4.5	1
114	226	4.6	1
114	227	4.7	1
114	228	4.8	1
114	229	4.9	1
114	230	5	1
114	231	5.1	1
114	232	5.2	1
113	2	0.1	33.25
113	3	0.2	33.25
113	4	0.3	33.25
113	5	0.4	33.25
113	6	0.5	33.25
113	7	0.6	33.25
113	8	0.7	33.25
113	9	0.8	33.25
113	10	0.9	33.25
113	11	1	33.25
113	12	1.1	33.25
113	188	1.2	33.25
113	193	1.3	33.25
113	194	1.4	33.25
113	195	1.5	33.25
113	196	1.6	33.25
113	197	1.7	33.25
113	198	1.8	33.25
113	199	1.9	33.25
113	200	2	33.25
113	201	2.1	33.25
113	202	2.2	33.25
113	203	2.3	33.25
113	204	2.4	33.25
113	205	2.5	33.25
113	206	2.6	33.25
113	207	2.7	33.25
113	208	2.8	33.25
113	209	2.9	33.25
113	210	3	33.25
113	211	3.1	33.25
113	212	3.2	33.25
113	213	3.3	33.25
113	214	3.4	33.25
113	215	3.5	33.25
113	216	3.6	33.25
113	217	3.7	33.25
113	218	3.8	33.25
113	219	3.9	33.25
113	220	4	33.25
113	221	4.1	33.25
113	222	4.2	33.25
113	223	4.3	33.25
113	224	4.4	33.25
113	225	4.5	33.25
113	226	4.6	33.25
113	227	4.7	33.25
113	228	4.8	33.25
113	229	4.9	33.25
113	230	5	33.25
113	231	5.1	33.25
113	232	5.2	33.25
112	2	0.1	225.09
112	3	0.2	225.09
112	4	0.3	225.19
112	5	0.4	225.29
112	6	0.5	225.39
112	7	0.6	225.49
112	8	0.7	225.59
112	9	0.8	225.69
112	10	0.9	225.79
112	11	1	225.89
112	12	1.1	225.99
112	188	1.2	226.09
112	193	1.3	226.19
112	194	1.4	226.29
112	195	1.5	226.39
112	196	1.6	226.49
112	197	1.7	226.59
112	198	1.8	226.69
112	199	1.9	226.79
112	200	2	226.89
112	201	2.1	226.99
112	202	2.2	227.09
112	203	2.3	227.19
112	204	2.4	227.29
112	205	2.5	227.39
112	206	2.6	227.49
112	207	2.7	227.59
112	208	2.8	227.69
112	209	2.9	227.79
112	210	3	227.89
112	211	3.1	227.99
112	212	3.2	228.09
112	213	3.3	228.19
112	214	3.4	228.29
112	215	3.5	228.39
112	216	3.6	228.49
112	217	3.7	228.59
112	218	3.8	228.69
112	219	3.9	228.79
112	220	4	228.89
112	221	4.1	228.99
112	222	4.2	229.09
112	223	4.3	229.19
112	224	4.4	229.29
112	225	4.5	229.39
112	226	4.6	229.49
112	227	4.7	229.59
112	228	4.8	229.69
112	229	4.9	229.79
112	230	5	229.89
112	231	5.1	229.99
112	232	5.2	230.09
127	4	0.3	1.15833237888
127	5	0.4	1.15833237888
127	6	0.5	1.15833237888
127	7	0.6	1.15833237888
127	8	0.7	1.15833237888
127	9	0.8	1.15833237888
127	10	0.9	1.15833237888
127	11	1	1.15833237888
127	12	1.1	1.15833237888
127	188	1.2	1.15833237888
127	193	1.3	1.15833237888
127	194	1.4	1.15833237888
127	195	1.5	1.15833237888
127	196	1.6	1.15833237888
127	197	1.7	1.15833237888
127	198	1.8	1.15833237888
127	199	1.9	1.15833237888
127	200	2	1.15833237888
127	201	2.1	1.15833237888
127	202	2.2	1.15833237888
127	203	2.3	1.15833237888
127	204	2.4	1.15833237888
127	205	2.5	1.15833237888
127	206	2.6	1.15833237888
127	207	2.7	1.15833237888
127	208	2.8	1.15833237888
127	209	2.9	1.15833237888
127	210	3	1.15833237888
127	211	3.1	1.15833237888
127	212	3.2	1.15833237888
127	213	3.3	1.15833237888
127	214	3.4	1.15833237888
127	215	3.5	1.15833237888
127	216	3.6	1.15833237888
127	217	3.7	1.15833237888
127	218	3.8	1.15833237888
127	219	3.9	1.15833237888
127	220	4	1.15833237888
127	221	4.1	1.15833237888
127	222	4.2	1.15833237888
127	223	4.3	1.15833237888
127	224	4.4	1.15833237888
127	225	4.5	1.15833237888
127	226	4.6	1.15833237888
127	227	4.7	1.15833237888
127	228	4.8	1.15833237888
127	229	4.9	1.15833237888
127	230	5	1.15833237888
127	231	5.1	1.15833237888
127	232	5.2	1.15833237888
126	4	0.3	0
126	5	0.4	0
126	6	0.5	0
126	7	0.6	0
126	8	0.7	0
126	9	0.8	0
126	10	0.9	0
126	11	1	0
126	12	1.1	0
126	188	1.2	0
126	193	1.3	0
126	194	1.4	0
126	195	1.5	0
126	196	1.6	0
126	197	1.7	0
126	198	1.8	0
126	199	1.9	0
126	200	2	0
126	201	2.1	0
126	202	2.2	0
126	203	2.3	0
126	204	2.4	0
126	205	2.5	0
126	206	2.6	0
126	207	2.7	0
126	208	2.8	0
126	209	2.9	0
126	210	3	0
126	211	3.1	0
126	212	3.2	0
126	213	3.3	0
126	214	3.4	0
126	215	3.5	0
126	216	3.6	0
126	217	3.7	0
126	218	3.8	0
126	219	3.9	0
126	220	4	0
126	221	4.1	0
126	222	4.2	0
126	223	4.3	0
126	224	4.4	0
126	225	4.5	0
126	226	4.6	0
126	227	4.7	0
126	228	4.8	0
126	229	4.9	0
126	230	5	0
126	231	5.1	0
126	232	5.2	0
125	3	0.2	1
125	4	0.3	1
125	5	0.4	1
125	6	0.5	1
125	7	0.6	1
125	8	0.7	1
125	9	0.8	1
125	10	0.9	1
125	11	1	1
125	12	1.1	1
125	188	1.2	1
125	193	1.3	1
125	194	1.4	1
125	195	1.5	1
125	196	1.6	1
125	197	1.7	1
125	198	1.8	1
125	199	1.9	1
125	200	2	1
125	201	2.1	1
125	202	2.2	1
125	203	2.3	1
125	204	2.4	1
125	205	2.5	1
125	206	2.6	1
125	207	2.7	1
125	208	2.8	1
125	209	2.9	1
125	210	3	1
125	211	3.1	1
125	212	3.2	1
125	213	3.3	1
125	214	3.4	1
125	215	3.5	1
125	216	3.6	1
125	217	3.7	1
125	218	3.8	1
125	219	3.9	1
125	220	4	1
125	221	4.1	1
125	222	4.2	1
125	223	4.3	1
125	224	4.4	1
125	225	4.5	1
125	226	4.6	1
125	227	4.7	1
125	228	4.8	1
125	229	4.9	1
125	230	5	1
125	231	5.1	1
125	232	5.2	1
124	2	0.1	29.95
124	3	0.2	29.95
124	4	0.3	29.95
124	5	0.4	29.95
124	6	0.5	29.95
124	7	0.6	29.95
124	8	0.7	29.95
124	9	0.8	29.95
124	10	0.9	29.95
124	11	1	29.95
124	12	1.1	29.95
124	188	1.2	29.95
124	193	1.3	29.95
124	194	1.4	29.95
124	195	1.5	29.95
124	196	1.6	29.95
124	197	1.7	29.95
124	198	1.8	29.95
124	199	1.9	29.95
124	200	2	29.95
124	201	2.1	29.95
124	202	2.2	29.95
124	203	2.3	29.95
124	204	2.4	29.95
124	205	2.5	29.95
124	206	2.6	29.95
124	207	2.7	29.95
124	208	2.8	29.95
124	209	2.9	29.95
124	210	3	29.95
124	211	3.1	29.95
124	212	3.2	29.95
124	213	3.3	29.95
124	214	3.4	29.95
124	215	3.5	29.95
124	216	3.6	29.95
124	217	3.7	29.95
124	218	3.8	29.95
124	219	3.9	29.95
124	220	4	29.95
124	221	4.1	29.95
124	222	4.2	29.95
124	223	4.3	29.95
124	224	4.4	29.95
124	225	4.5	29.95
124	226	4.6	29.95
124	227	4.7	29.95
124	228	4.8	29.95
124	229	4.9	29.95
124	230	5	29.95
124	231	5.1	29.95
124	232	5.2	29.95
123	2	0.1	225.09
123	3	0.2	225.09
123	4	0.3	225.19
123	5	0.4	225.29
123	6	0.5	225.39
123	7	0.6	225.49
123	8	0.7	225.59
123	9	0.8	225.69
123	10	0.9	225.79
123	11	1	225.89
123	12	1.1	225.99
123	188	1.2	226.09
123	193	1.3	226.19
123	194	1.4	226.29
123	195	1.5	226.39
123	196	1.6	226.49
123	197	1.7	226.59
123	198	1.8	226.69
123	199	1.9	226.79
123	200	2	226.89
123	201	2.1	226.99
123	202	2.2	227.09
123	203	2.3	227.19
123	204	2.4	227.29
123	205	2.5	227.39
123	206	2.6	227.49
123	207	2.7	227.59
123	208	2.8	227.69
123	209	2.9	227.79
123	210	3	227.89
123	211	3.1	227.99
123	212	3.2	228.09
123	213	3.3	228.19
123	214	3.4	228.29
123	215	3.5	228.39
123	216	3.6	228.49
123	217	3.7	228.59
123	218	3.8	228.69
123	219	3.9	228.79
123	220	4	228.89
123	221	4.1	228.99
123	222	4.2	229.09
123	223	4.3	229.19
123	224	4.4	229.29
123	225	4.5	229.39
123	226	4.6	229.49
123	227	4.7	229.59
123	228	4.8	229.69
123	229	4.9	229.79
123	230	5	229.89
123	231	5.1	229.99
123	232	5.2	230.09
138	4	0.3	1.15833237888
138	5	0.4	1.15833237888
138	6	0.5	1.15833237888
138	7	0.6	1.15833237888
138	8	0.7	1.15833237888
138	9	0.8	1.15833237888
138	10	0.9	1.15833237888
138	11	1	1.15833237888
138	12	1.1	1.15833237888
138	188	1.2	1.15833237888
138	193	1.3	1.15833237888
138	194	1.4	1.15833237888
138	195	1.5	1.15833237888
138	196	1.6	1.15833237888
138	197	1.7	1.15833237888
138	198	1.8	1.15833237888
138	199	1.9	1.15833237888
138	200	2	1.15833237888
138	201	2.1	1.15833237888
138	202	2.2	1.15833237888
138	203	2.3	1.15833237888
138	204	2.4	1.15833237888
138	205	2.5	1.15833237888
138	206	2.6	1.15833237888
138	207	2.7	1.15833237888
138	208	2.8	1.15833237888
138	209	2.9	1.15833237888
138	210	3	1.15833237888
138	211	3.1	1.15833237888
138	212	3.2	1.15833237888
138	213	3.3	1.15833237888
138	214	3.4	1.15833237888
138	215	3.5	1.15833237888
138	216	3.6	1.15833237888
138	217	3.7	1.15833237888
138	218	3.8	1.15833237888
138	219	3.9	1.15833237888
138	220	4	1.15833237888
138	221	4.1	1.15833237888
138	222	4.2	1.15833237888
138	223	4.3	1.15833237888
138	224	4.4	1.15833237888
138	225	4.5	1.15833237888
138	226	4.6	1.15833237888
138	227	4.7	1.15833237888
138	228	4.8	1.15833237888
138	229	4.9	1.15833237888
138	230	5	1.15833237888
138	231	5.1	1.15833237888
138	232	5.2	1.15833237888
137	4	0.3	0
137	5	0.4	0
137	6	0.5	0
137	7	0.6	0
137	8	0.7	0
137	9	0.8	0
137	10	0.9	0
137	11	1	0
137	12	1.1	0
137	188	1.2	0
137	193	1.3	0
137	194	1.4	0
137	195	1.5	0
137	196	1.6	0
137	197	1.7	0
137	198	1.8	0
137	199	1.9	0
137	200	2	0
137	201	2.1	0
137	202	2.2	0
137	203	2.3	0
137	204	2.4	0
137	205	2.5	0
137	206	2.6	0
137	207	2.7	0
137	208	2.8	0
137	209	2.9	0
137	210	3	0
137	211	3.1	0
137	212	3.2	0
137	213	3.3	0
137	214	3.4	0
137	215	3.5	0
137	216	3.6	0
137	217	3.7	0
137	218	3.8	0
137	219	3.9	0
137	220	4	0
137	221	4.1	0
137	222	4.2	0
137	223	4.3	0
137	224	4.4	0
137	225	4.5	0
137	226	4.6	0
137	227	4.7	0
137	228	4.8	0
137	229	4.9	0
137	230	5	0
137	231	5.1	0
137	232	5.2	0
136	3	0.2	1
136	4	0.3	1
136	5	0.4	1
136	6	0.5	1
136	7	0.6	1
136	8	0.7	1
136	9	0.8	1
136	10	0.9	1
136	11	1	1
136	12	1.1	1
136	188	1.2	1
136	193	1.3	1
136	194	1.4	1
136	195	1.5	1
136	196	1.6	1
136	197	1.7	1
136	198	1.8	1
136	199	1.9	1
136	200	2	1
136	201	2.1	1
136	202	2.2	1
136	203	2.3	1
136	204	2.4	1
136	205	2.5	1
136	206	2.6	1
136	207	2.7	1
136	208	2.8	1
136	209	2.9	1
136	210	3	1
136	211	3.1	1
136	212	3.2	1
136	213	3.3	1
136	214	3.4	1
136	215	3.5	1
136	216	3.6	1
136	217	3.7	1
136	218	3.8	1
136	219	3.9	1
136	220	4	1
136	221	4.1	1
136	222	4.2	1
136	223	4.3	1
136	224	4.4	1
136	225	4.5	1
136	226	4.6	1
136	227	4.7	1
136	228	4.8	1
136	229	4.9	1
136	230	5	1
136	231	5.1	1
136	232	5.2	1
135	2	0.1	26.65
135	3	0.2	26.65
135	4	0.3	26.65
135	5	0.4	26.65
135	6	0.5	26.65
135	7	0.6	26.65
135	8	0.7	26.65
135	9	0.8	26.65
135	10	0.9	26.65
135	11	1	26.65
135	12	1.1	26.65
135	188	1.2	26.65
135	193	1.3	26.65
135	194	1.4	26.65
135	195	1.5	26.65
135	196	1.6	26.65
135	197	1.7	26.65
135	198	1.8	26.65
135	199	1.9	26.65
135	200	2	26.65
135	201	2.1	26.65
135	202	2.2	26.65
135	203	2.3	26.65
135	204	2.4	26.65
135	205	2.5	26.65
135	206	2.6	26.65
135	207	2.7	26.65
135	208	2.8	26.65
135	209	2.9	26.65
135	210	3	26.65
135	211	3.1	26.65
135	212	3.2	26.65
135	213	3.3	26.65
135	214	3.4	26.65
135	215	3.5	26.65
135	216	3.6	26.65
135	217	3.7	26.65
135	218	3.8	26.65
135	219	3.9	26.65
135	220	4	26.65
135	221	4.1	26.65
135	222	4.2	26.65
135	223	4.3	26.65
135	224	4.4	26.65
135	225	4.5	26.65
135	226	4.6	26.65
135	227	4.7	26.65
135	228	4.8	26.65
135	229	4.9	26.65
135	230	5	26.65
135	231	5.1	26.65
135	232	5.2	26.65
134	2	0.1	75.09
134	3	0.2	75.09
134	4	0.3	75.19
134	5	0.4	75.29
134	6	0.5	75.39
134	7	0.6	75.49
134	8	0.7	75.59
134	9	0.8	75.69
134	10	0.9	75.79
134	11	1	75.89
134	12	1.1	75.99
134	188	1.2	76.09
134	193	1.3	76.19
134	194	1.4	76.29
134	195	1.5	76.39
134	196	1.6	76.49
134	197	1.7	76.59
134	198	1.8	76.69
134	199	1.9	76.79
134	200	2	76.89
134	201	2.1	76.99
134	202	2.2	77.09
134	203	2.3	77.19
134	204	2.4	77.29
134	205	2.5	77.39
134	206	2.6	77.489999999999
134	207	2.7	77.589999999999
134	208	2.8	77.689999999999
134	209	2.9	77.789999999999
134	210	3	77.889999999999
134	211	3.1	77.989999999999
134	212	3.2	78.089999999999
134	213	3.3	78.189999999999
134	214	3.4	78.289999999999
134	215	3.5	78.389999999999
134	216	3.6	78.489999999999
134	217	3.7	78.589999999999
134	218	3.8	78.689999999999
134	219	3.9	78.789999999999
134	220	4	78.889999999999
134	221	4.1	78.989999999999
134	222	4.2	79.089999999999
134	223	4.3	79.189999999999
134	224	4.4	79.289999999999
134	225	4.5	79.389999999999
134	226	4.6	79.489999999999
134	227	4.7	79.589999999999
134	228	4.8	79.689999999999
134	229	4.9	79.789999999999
134	230	5	79.889999999999
134	231	5.1	79.989999999999
134	232	5.2	80.089999999999
149	4	0.3	1.15833237888
149	5	0.4	1.15833237888
149	6	0.5	1.15833237888
149	7	0.6	1.15833237888
149	8	0.7	1.15833237888
149	9	0.8	1.15833237888
149	10	0.9	1.15833237888
149	11	1	1.15833237888
149	12	1.1	1.15833237888
149	188	1.2	1.15833237888
149	193	1.3	1.15833237888
149	194	1.4	1.15833237888
149	195	1.5	1.15833237888
149	196	1.6	1.15833237888
149	197	1.7	1.15833237888
149	198	1.8	1.15833237888
149	199	1.9	1.15833237888
149	200	2	1.15833237888
149	201	2.1	1.15833237888
149	202	2.2	1.15833237888
149	203	2.3	1.15833237888
149	204	2.4	1.15833237888
149	205	2.5	1.15833237888
149	206	2.6	1.15833237888
149	207	2.7	1.15833237888
149	208	2.8	1.15833237888
149	209	2.9	1.15833237888
149	210	3	1.15833237888
149	211	3.1	1.15833237888
149	212	3.2	1.15833237888
149	213	3.3	1.15833237888
149	214	3.4	1.15833237888
149	215	3.5	1.15833237888
149	216	3.6	1.15833237888
149	217	3.7	1.15833237888
149	218	3.8	1.15833237888
149	219	3.9	1.15833237888
149	220	4	1.15833237888
149	221	4.1	1.15833237888
149	222	4.2	1.15833237888
149	223	4.3	1.15833237888
149	224	4.4	1.15833237888
149	225	4.5	1.15833237888
149	226	4.6	1.15833237888
149	227	4.7	1.15833237888
149	228	4.8	1.15833237888
149	229	4.9	1.15833237888
149	230	5	1.15833237888
149	231	5.1	1.15833237888
149	232	5.2	1.15833237888
148	4	0.3	0
148	5	0.4	0
148	6	0.5	0
148	7	0.6	0
148	8	0.7	0
148	9	0.8	0
148	10	0.9	0
148	11	1	0
148	12	1.1	0
148	188	1.2	0
148	193	1.3	0
148	194	1.4	0
148	195	1.5	0
148	196	1.6	0
148	197	1.7	0
148	198	1.8	0
148	199	1.9	0
148	200	2	0
148	201	2.1	0
148	202	2.2	0
148	203	2.3	0
148	204	2.4	0
148	205	2.5	0
148	206	2.6	0
148	207	2.7	0
148	208	2.8	0
148	209	2.9	0
148	210	3	0
148	211	3.1	0
148	212	3.2	0
148	213	3.3	0
148	214	3.4	0
148	215	3.5	0
148	216	3.6	0
148	217	3.7	0
148	218	3.8	0
148	219	3.9	0
148	220	4	0
148	221	4.1	0
148	222	4.2	0
148	223	4.3	0
148	224	4.4	0
148	225	4.5	0
148	226	4.6	0
148	227	4.7	0
148	228	4.8	0
148	229	4.9	0
148	230	5	0
148	231	5.1	0
148	232	5.2	0
147	3	0.2	1
147	4	0.3	1
147	5	0.4	1
147	6	0.5	1
147	7	0.6	1
147	8	0.7	1
147	9	0.8	1
147	10	0.9	1
147	11	1	1
147	12	1.1	1
147	188	1.2	1
147	193	1.3	1
147	194	1.4	1
147	195	1.5	1
147	196	1.6	1
147	197	1.7	1
147	198	1.8	1
147	199	1.9	1
147	200	2	1
147	201	2.1	1
147	202	2.2	1
147	203	2.3	1
147	204	2.4	1
147	205	2.5	1
147	206	2.6	1
147	207	2.7	1
147	208	2.8	1
147	209	2.9	1
147	210	3	1
147	211	3.1	1
147	212	3.2	1
147	213	3.3	1
147	214	3.4	1
147	215	3.5	1
147	216	3.6	1
147	217	3.7	1
147	218	3.8	1
147	219	3.9	1
147	220	4	1
147	221	4.1	1
147	222	4.2	1
147	223	4.3	1
147	224	4.4	1
147	225	4.5	1
147	226	4.6	1
147	227	4.7	1
147	228	4.8	1
147	229	4.9	1
147	230	5	1
147	231	5.1	1
147	232	5.2	1
146	2	0.1	26.65
146	3	0.2	26.65
146	4	0.3	26.65
146	5	0.4	26.65
146	6	0.5	26.65
146	7	0.6	26.65
146	8	0.7	26.65
146	9	0.8	26.65
146	10	0.9	26.65
146	11	1	26.65
146	12	1.1	26.65
146	188	1.2	26.65
146	193	1.3	26.65
146	194	1.4	26.65
146	195	1.5	26.65
146	196	1.6	26.65
146	197	1.7	26.65
146	198	1.8	26.65
146	199	1.9	26.65
146	200	2	26.65
146	201	2.1	26.65
146	202	2.2	26.65
146	203	2.3	26.65
146	204	2.4	26.65
146	205	2.5	26.65
146	206	2.6	26.65
146	207	2.7	26.65
146	208	2.8	26.65
146	209	2.9	26.65
146	210	3	26.65
146	211	3.1	26.65
146	212	3.2	26.65
146	213	3.3	26.65
146	214	3.4	26.65
146	215	3.5	26.65
146	216	3.6	26.65
146	217	3.7	26.65
146	218	3.8	26.65
146	219	3.9	26.65
146	220	4	26.65
146	221	4.1	26.65
146	222	4.2	26.65
146	223	4.3	26.65
146	224	4.4	26.65
146	225	4.5	26.65
146	226	4.6	26.65
146	227	4.7	26.65
146	228	4.8	26.65
146	229	4.9	26.65
146	230	5	26.65
146	231	5.1	26.65
146	232	5.2	26.65
145	2	0.1	225.09
145	3	0.2	225.09
145	4	0.3	225.19
145	5	0.4	225.29
145	6	0.5	225.39
145	7	0.6	225.49
145	8	0.7	225.59
145	9	0.8	225.69
145	10	0.9	225.79
145	11	1	225.89
145	12	1.1	225.99
145	188	1.2	226.09
145	193	1.3	226.19
145	194	1.4	226.29
145	195	1.5	226.39
145	196	1.6	226.49
145	197	1.7	226.59
145	198	1.8	226.69
145	199	1.9	226.79
145	200	2	226.89
145	201	2.1	226.99
145	202	2.2	227.09
145	203	2.3	227.19
145	204	2.4	227.29
145	205	2.5	227.39
145	206	2.6	227.49
145	207	2.7	227.59
145	208	2.8	227.69
145	209	2.9	227.79
145	210	3	227.89
145	211	3.1	227.99
145	212	3.2	228.09
145	213	3.3	228.19
145	214	3.4	228.29
145	215	3.5	228.39
145	216	3.6	228.49
145	217	3.7	228.59
145	218	3.8	228.69
145	219	3.9	228.79
145	220	4	228.89
145	221	4.1	228.99
145	222	4.2	229.09
145	223	4.3	229.19
145	224	4.4	229.29
145	225	4.5	229.39
145	226	4.6	229.49
145	227	4.7	229.59
145	228	4.8	229.69
145	229	4.9	229.79
145	230	5	229.89
145	231	5.1	229.99
145	232	5.2	230.09
160	4	0.3	1.15833237888
160	5	0.4	1.15833237888
160	6	0.5	1.15833237888
160	7	0.6	1.15833237888
160	8	0.7	1.15833237888
160	9	0.8	1.15833237888
160	10	0.9	1.15833237888
160	11	1	1.15833237888
160	12	1.1	1.15833237888
160	188	1.2	1.15833237888
160	193	1.3	1.15833237888
160	194	1.4	1.15833237888
160	195	1.5	1.15833237888
160	196	1.6	1.15833237888
160	197	1.7	1.15833237888
160	198	1.8	1.15833237888
160	199	1.9	1.15833237888
160	200	2	1.15833237888
160	201	2.1	1.15833237888
160	202	2.2	1.15833237888
160	203	2.3	1.15833237888
160	204	2.4	1.15833237888
160	205	2.5	1.15833237888
160	206	2.6	1.15833237888
160	207	2.7	1.15833237888
160	208	2.8	1.15833237888
160	209	2.9	1.15833237888
160	210	3	1.15833237888
160	211	3.1	1.15833237888
160	212	3.2	1.15833237888
160	213	3.3	1.15833237888
160	214	3.4	1.15833237888
160	215	3.5	1.15833237888
160	216	3.6	1.15833237888
160	217	3.7	1.15833237888
160	218	3.8	1.15833237888
160	219	3.9	1.15833237888
160	220	4	1.15833237888
160	221	4.1	1.15833237888
160	222	4.2	1.15833237888
160	223	4.3	1.15833237888
160	224	4.4	1.15833237888
160	225	4.5	1.15833237888
160	226	4.6	1.15833237888
160	227	4.7	1.15833237888
160	228	4.8	1.15833237888
160	229	4.9	1.15833237888
160	230	5	1.15833237888
160	231	5.1	1.15833237888
160	232	5.2	1.15833237888
159	4	0.3	0
159	5	0.4	0
159	6	0.5	0
159	7	0.6	0
159	8	0.7	0
159	9	0.8	0
159	10	0.9	0
159	11	1	0
159	12	1.1	0
159	188	1.2	0
159	193	1.3	0
159	194	1.4	0
159	195	1.5	0
159	196	1.6	0
159	197	1.7	0
159	198	1.8	0
159	199	1.9	0
159	200	2	0
159	201	2.1	0
159	202	2.2	0
159	203	2.3	0
159	204	2.4	0
159	205	2.5	0
159	206	2.6	0
159	207	2.7	0
159	208	2.8	0
159	209	2.9	0
159	210	3	0
159	211	3.1	0
159	212	3.2	0
159	213	3.3	0
159	214	3.4	0
159	215	3.5	0
159	216	3.6	0
159	217	3.7	0
159	218	3.8	0
159	219	3.9	0
159	220	4	0
159	221	4.1	0
159	222	4.2	0
159	223	4.3	0
159	224	4.4	0
159	225	4.5	0
159	226	4.6	0
159	227	4.7	0
159	228	4.8	0
159	229	4.9	0
159	230	5	0
159	231	5.1	0
159	232	5.2	0
158	3	0.2	1
158	4	0.3	1
158	5	0.4	1
158	6	0.5	1
158	7	0.6	1
158	8	0.7	1
158	9	0.8	1
158	10	0.9	1
158	11	1	1
158	12	1.1	1
158	188	1.2	1
158	193	1.3	1
158	194	1.4	1
158	195	1.5	1
158	196	1.6	1
158	197	1.7	1
158	198	1.8	1
158	199	1.9	1
158	200	2	1
158	201	2.1	1
158	202	2.2	1
158	203	2.3	1
158	204	2.4	1
158	205	2.5	1
158	206	2.6	1
158	207	2.7	1
158	208	2.8	1
158	209	2.9	1
158	210	3	1
158	211	3.1	1
158	212	3.2	1
158	213	3.3	1
158	214	3.4	1
158	215	3.5	1
158	216	3.6	1
158	217	3.7	1
158	218	3.8	1
158	219	3.9	1
158	220	4	1
158	221	4.1	1
158	222	4.2	1
158	223	4.3	1
158	224	4.4	1
158	225	4.5	1
158	226	4.6	1
158	227	4.7	1
158	228	4.8	1
158	229	4.9	1
158	230	5	1
158	231	5.1	1
158	232	5.2	1
157	2	0.1	29.95
157	3	0.2	29.95
157	4	0.3	29.95
157	5	0.4	29.95
157	6	0.5	29.95
157	7	0.6	29.95
157	8	0.7	29.95
157	9	0.8	29.95
157	10	0.9	29.95
157	11	1	29.95
157	12	1.1	29.95
157	188	1.2	29.95
157	193	1.3	29.95
157	194	1.4	29.95
157	195	1.5	29.95
157	196	1.6	29.95
157	197	1.7	29.95
157	198	1.8	29.95
157	199	1.9	29.95
157	200	2	29.95
157	201	2.1	29.95
157	202	2.2	29.95
157	203	2.3	29.95
157	204	2.4	29.95
157	205	2.5	29.95
157	206	2.6	29.95
157	207	2.7	29.95
157	208	2.8	29.95
157	209	2.9	29.95
157	210	3	29.95
157	211	3.1	29.95
157	212	3.2	29.95
157	213	3.3	29.95
157	214	3.4	29.95
157	215	3.5	29.95
157	216	3.6	29.95
157	217	3.7	29.95
157	218	3.8	29.95
157	219	3.9	29.95
157	220	4	29.95
157	221	4.1	29.95
157	222	4.2	29.95
157	223	4.3	29.95
157	224	4.4	29.95
157	225	4.5	29.95
157	226	4.6	29.95
157	227	4.7	29.95
157	228	4.8	29.95
157	229	4.9	29.95
157	230	5	29.95
157	231	5.1	29.95
157	232	5.2	29.95
156	2	0.1	55.09
156	3	0.2	55.09
156	4	0.3	55.19
156	5	0.4	55.29
156	6	0.5	55.39
156	7	0.6	55.49
156	8	0.7	55.59
156	9	0.8	55.69
156	10	0.9	55.79
156	11	1	55.89
156	12	1.1	55.99
156	188	1.2	56.09
156	193	1.3	56.19
156	194	1.4	56.29
156	195	1.5	56.39
156	196	1.6	56.49
156	197	1.7	56.59
156	198	1.8	56.69
156	199	1.9	56.79
156	200	2	56.89
156	201	2.1	56.99
156	202	2.2	57.09
156	203	2.3	57.19
156	204	2.4	57.29
156	205	2.5	57.39
156	206	2.6	57.49
156	207	2.7	57.59
156	208	2.8	57.69
156	209	2.9	57.79
156	210	3	57.89
156	211	3.1	57.99
156	212	3.2	58.09
156	213	3.3	58.19
156	214	3.4	58.29
156	215	3.5	58.39
156	216	3.6	58.49
156	217	3.7	58.59
156	218	3.8	58.69
156	219	3.9	58.79
156	220	4	58.89
156	221	4.1	58.99
156	222	4.2	59.09
156	223	4.3	59.19
156	224	4.4	59.29
156	225	4.5	59.39
156	226	4.6	59.49
156	227	4.7	59.59
156	228	4.8	59.69
156	229	4.9	59.79
156	230	5	59.89
156	231	5.1	59.99
156	232	5.2	60.09
171	4	0.3	1.15833237888
171	5	0.4	1.15833237888
171	6	0.5	1.15833237888
171	7	0.6	1.15833237888
171	8	0.7	1.15833237888
171	9	0.8	1.15833237888
171	10	0.9	1.15833237888
171	11	1	1.15833237888
171	12	1.1	1.15833237888
171	188	1.2	1.15833237888
171	193	1.3	1.15833237888
171	194	1.4	1.15833237888
171	195	1.5	1.15833237888
171	196	1.6	1.15833237888
171	197	1.7	1.15833237888
171	198	1.8	1.15833237888
171	199	1.9	1.15833237888
171	200	2	1.15833237888
171	201	2.1	1.15833237888
171	202	2.2	1.15833237888
171	203	2.3	1.15833237888
171	204	2.4	1.15833237888
171	205	2.5	1.15833237888
171	206	2.6	1.15833237888
171	207	2.7	1.15833237888
171	208	2.8	1.15833237888
171	209	2.9	1.15833237888
171	210	3	1.15833237888
171	211	3.1	1.15833237888
171	212	3.2	1.15833237888
171	213	3.3	1.15833237888
171	214	3.4	1.15833237888
171	215	3.5	1.15833237888
171	216	3.6	1.15833237888
171	217	3.7	1.15833237888
171	218	3.8	1.15833237888
171	219	3.9	1.15833237888
171	220	4	1.15833237888
171	221	4.1	1.15833237888
171	222	4.2	1.15833237888
171	223	4.3	1.15833237888
171	224	4.4	1.15833237888
171	225	4.5	1.15833237888
171	226	4.6	1.15833237888
171	227	4.7	1.15833237888
171	228	4.8	1.15833237888
171	229	4.9	1.15833237888
171	230	5	1.15833237888
171	231	5.1	1.15833237888
171	232	5.2	1.15833237888
170	4	0.3	0
170	5	0.4	0
170	6	0.5	0
170	7	0.6	0
170	8	0.7	0
170	9	0.8	0
170	10	0.9	0
170	11	1	0
170	12	1.1	0
170	188	1.2	0
170	193	1.3	0
170	194	1.4	0
170	195	1.5	0
170	196	1.6	0
170	197	1.7	0
170	198	1.8	0
170	199	1.9	0
170	200	2	0
170	201	2.1	0
170	202	2.2	0
170	203	2.3	0
170	204	2.4	0
170	205	2.5	0
170	206	2.6	0
170	207	2.7	0
170	208	2.8	0
170	209	2.9	0
170	210	3	0
170	211	3.1	0
170	212	3.2	0
170	213	3.3	0
170	214	3.4	0
170	215	3.5	0
170	216	3.6	0
170	217	3.7	0
170	218	3.8	0
170	219	3.9	0
170	220	4	0
170	221	4.1	0
170	222	4.2	0
170	223	4.3	0
170	224	4.4	0
170	225	4.5	0
170	226	4.6	0
170	227	4.7	0
170	228	4.8	0
170	229	4.9	0
170	230	5	0
170	231	5.1	0
170	232	5.2	0
169	3	0.2	1
169	4	0.3	1
169	5	0.4	1
169	6	0.5	1
169	7	0.6	1
169	8	0.7	1
169	9	0.8	1
169	10	0.9	1
169	11	1	1
169	12	1.1	1
169	188	1.2	1
169	193	1.3	1
169	194	1.4	1
169	195	1.5	1
169	196	1.6	1
169	197	1.7	1
169	198	1.8	1
169	199	1.9	1
169	200	2	1
169	201	2.1	1
169	202	2.2	1
169	203	2.3	1
169	204	2.4	1
169	205	2.5	1
169	206	2.6	1
169	207	2.7	1
169	208	2.8	1
169	209	2.9	1
169	210	3	1
169	211	3.1	1
169	212	3.2	1
169	213	3.3	1
169	214	3.4	1
169	215	3.5	1
169	216	3.6	1
169	217	3.7	1
169	218	3.8	1
169	219	3.9	1
169	220	4	1
169	221	4.1	1
169	222	4.2	1
169	223	4.3	1
169	224	4.4	1
169	225	4.5	1
169	226	4.6	1
169	227	4.7	1
169	228	4.8	1
169	229	4.9	1
169	230	5	1
169	231	5.1	1
169	232	5.2	1
168	2	0.1	33.25
168	3	0.2	33.25
168	4	0.3	33.25
168	5	0.4	33.25
168	6	0.5	33.25
168	7	0.6	33.25
168	8	0.7	33.25
168	9	0.8	33.25
168	10	0.9	33.25
168	11	1	33.25
168	12	1.1	33.25
168	188	1.2	33.25
168	193	1.3	33.25
168	194	1.4	33.25
168	195	1.5	33.25
168	196	1.6	33.25
168	197	1.7	33.25
168	198	1.8	33.25
168	199	1.9	33.25
168	200	2	33.25
168	201	2.1	33.25
168	202	2.2	33.25
168	203	2.3	33.25
168	204	2.4	33.25
168	205	2.5	33.25
168	206	2.6	33.25
168	207	2.7	33.25
168	208	2.8	33.25
168	209	2.9	33.25
168	210	3	33.25
168	211	3.1	33.25
168	212	3.2	33.25
168	213	3.3	33.25
168	214	3.4	33.25
168	215	3.5	33.25
168	216	3.6	33.25
168	217	3.7	33.25
168	218	3.8	33.25
168	219	3.9	33.25
168	220	4	33.25
168	221	4.1	33.25
168	222	4.2	33.25
168	223	4.3	33.25
168	224	4.4	33.25
168	225	4.5	33.25
168	226	4.6	33.25
168	227	4.7	33.25
168	228	4.8	33.25
168	229	4.9	33.25
168	230	5	33.25
168	231	5.1	33.25
168	232	5.2	33.25
167	2	0.1	45.09
167	3	0.2	45.09
167	4	0.3	45.19
167	5	0.4	45.29
167	6	0.5	45.39
167	7	0.6	45.49
167	8	0.7	45.59
167	9	0.8	45.69
167	10	0.9	45.79
167	11	1	45.89
167	12	1.1	45.99
167	188	1.2	46.09
167	193	1.3	46.19
167	194	1.4	46.29
167	195	1.5	46.39
167	196	1.6	46.49
167	197	1.7	46.59
167	198	1.8	46.69
167	199	1.9	46.79
167	200	2	46.89
167	201	2.1	46.99
167	202	2.2	47.09
167	203	2.3	47.19
167	204	2.4	47.29
167	205	2.5	47.39
167	206	2.6	47.49
167	207	2.7	47.59
167	208	2.8	47.69
167	209	2.9	47.79
167	210	3	47.89
167	211	3.1	47.99
167	212	3.2	48.09
167	213	3.3	48.19
167	214	3.4	48.290000000001
167	215	3.5	48.390000000001
167	216	3.6	48.490000000001
167	217	3.7	48.590000000001
167	218	3.8	48.690000000001
167	219	3.9	48.790000000001
167	220	4	48.890000000001
167	221	4.1	48.990000000001
167	222	4.2	49.090000000001
167	223	4.3	49.190000000001
167	224	4.4	49.290000000001
167	225	4.5	49.390000000001
167	226	4.6	49.490000000001
167	227	4.7	49.590000000001
[...]
179	12	1.1	29.95
179	188	1.2	29.95
179	193	1.3	29.95
179	194	1.4	29.95
179	195	1.5	29.95
179	196	1.6	29.95
179	197	1.7	29.95
179	198	1.8	29.95
179	199	1.9	29.95
179	200	2	29.95
179	201	2.1	29.95
179	202	2.2	29.95
179	203	2.3	29.95
179	204	2.4	29.95
179	205	2.5	29.95
179	206	2.6	29.95
179	207	2.7	29.95
179	208	2.8	29.95
179	209	2.9	29.95
179	210	3	29.95
179	211	3.1	29.95
179	212	3.2	29.95
179	213	3.3	29.95
179	214	3.4	29.95
179	215	3.5	29.95
179	216	3.6	29.95
179	217	3.7	29.95
179	218	3.8	29.95
179	219	3.9	29.95
179	220	4	29.95
179	221	4.1	29.95
179	222	4.2	29.95
179	223	4.3	29.95
179	224	4.4	29.95
179	225	4.5	29.95
179	226	4.6	29.95
179	227	4.7	29.95
179	228	4.8	29.95
179	229	4.9	29.95
179	230	5	29.95
179	231	5.1	29.95
179	232	5.2	29.95
178	2	0.1	45.09
178	3	0.2	45.09
178	4	0.3	45.19
178	5	0.4	45.29
178	6	0.5	45.39
178	7	0.6	45.49
178	8	0.7	45.59
178	9	0.8	45.69
178	10	0.9	45.79
178	11	1	45.89
178	12	1.1	45.99
178	188	1.2	46.09
178	193	1.3	46.19
178	194	1.4	46.29
178	195	1.5	46.39
178	196	1.6	46.49
178	197	1.7	46.59
178	198	1.8	46.69
178	199	1.9	46.79
178	200	2	46.89
178	201	2.1	46.99
178	202	2.2	47.09
178	203	2.3	47.19
178	204	2.4	47.29
178	205	2.5	47.39
178	206	2.6	47.49
178	207	2.7	47.59
178	208	2.8	47.69
178	209	2.9	47.79
178	210	3	47.89
178	211	3.1	47.99
178	212	3.2	48.09
178	213	3.3	48.19
178	214	3.4	48.290000000001
178	215	3.5	48.390000000001
178	216	3.6	48.490000000001
178	217	3.7	48.590000000001
178	218	3.8	48.690000000001
178	219	3.9	48.790000000001
178	220	4	48.890000000001
178	221	4.1	48.990000000001
178	222	4.2	49.090000000001
178	223	4.3	49.190000000001
178	224	4.4	49.290000000001
178	225	4.5	49.390000000001
178	226	4.6	49.490000000001
178	227	4.7	49.590000000001
178	228	4.8	49.690000000001
178	229	4.9	49.790000000001
178	230	5	49.890000000001
178	231	5.1	49.990000000001
178	232	5.2	50.090000000001
193	4	0.3	1.15833237888
193	5	0.4	1.15833237888
193	6	0.5	1.15833237888
193	7	0.6	1.15833237888
193	8	0.7	1.15833237888
193	9	0.8	1.15833237888
193	10	0.9	1.15833237888
193	11	1	1.15833237888
193	12	1.1	1.15833237888
193	188	1.2	1.15833237888
193	193	1.3	1.15833237888
193	194	1.4	1.15833237888
193	195	1.5	1.15833237888
193	196	1.6	1.15833237888
193	197	1.7	1.15833237888
193	198	1.8	1.15833237888
193	199	1.9	1.15833237888
193	200	2	1.15833237888
193	201	2.1	1.15833237888
193	202	2.2	1.15833237888
193	203	2.3	1.15833237888
193	204	2.4	1.15833237888
193	205	2.5	1.15833237888
193	206	2.6	1.15833237888
193	207	2.7	1.15833237888
193	208	2.8	1.15833237888
193	209	2.9	1.15833237888
193	210	3	1.15833237888
193	211	3.1	1.15833237888
193	212	3.2	1.15833237888
193	213	3.3	1.15833237888
193	214	3.4	1.15833237888
193	215	3.5	1.15833237888
193	216	3.6	1.15833237888
193	217	3.7	1.15833237888
193	218	3.8	1.15833237888
193	219	3.9	1.15833237888
193	220	4	1.15833237888
193	221	4.1	1.15833237888
193	222	4.2	1.15833237888
193	223	4.3	1.15833237888
193	224	4.4	1.15833237888
193	225	4.5	1.15833237888
193	226	4.6	1.15833237888
193	227	4.7	1.15833237888
193	228	4.8	1.15833237888
193	229	4.9	1.15833237888
193	230	5	1.15833237888
193	231	5.1	1.15833237888
193	232	5.2	1.15833237888
192	4	0.3	0
192	5	0.4	0
192	6	0.5	0
192	7	0.6	0
192	8	0.7	0
192	9	0.8	0
192	10	0.9	0
192	11	1	0
192	12	1.1	0
192	188	1.2	0
192	193	1.3	0
192	194	1.4	0
192	195	1.5	0
192	196	1.6	0
192	197	1.7	0
192	198	1.8	0
192	199	1.9	0
192	200	2	0
192	201	2.1	0
192	202	2.2	0
192	203	2.3	0
192	204	2.4	0
192	205	2.5	0
192	206	2.6	0
192	207	2.7	0
192	208	2.8	0
192	209	2.9	0
192	210	3	0
192	211	3.1	0
192	212	3.2	0
192	213	3.3	0
192	214	3.4	0
192	215	3.5	0
192	216	3.6	0
192	217	3.7	0
192	218	3.8	0
192	219	3.9	0
192	220	4	0
192	221	4.1	0
192	222	4.2	0
192	223	4.3	0
192	224	4.4	0
192	225	4.5	0
192	226	4.6	0
192	227	4.7	0
192	228	4.8	0
192	229	4.9	0
192	230	5	0
192	231	5.1	0
192	232	5.2	0
191	3	0.2	1
191	4	0.3	1
191	5	0.4	1
191	6	0.5	1
191	7	0.6	1
191	8	0.7	1
191	9	0.8	1
191	10	0.9	1
191	11	1	1
191	12	1.1	1
191	188	1.2	1
191	193	1.3	1
191	194	1.4	1
191	195	1.5	1
191	196	1.6	1
191	197	1.7	1
191	198	1.8	1
191	199	1.9	1
191	200	2	1
191	201	2.1	1
191	202	2.2	1
191	203	2.3	1
191	204	2.4	1
191	205	2.5	1
191	206	2.6	1
191	207	2.7	1
191	208	2.8	1
191	209	2.9	1
191	210	3	1
191	211	3.1	1
191	212	3.2	1
191	213	3.3	1
191	214	3.4	1
191	215	3.5	1
191	216	3.6	1
191	217	3.7	1
191	218	3.8	1
191	219	3.9	1
191	220	4	1
191	221	4.1	1
191	222	4.2	1
191	223	4.3	1
191	224	4.4	1
191	225	4.5	1
191	226	4.6	1
191	227	4.7	1
191	228	4.8	1
191	229	4.9	1
191	230	5	1
191	231	5.1	1
191	232	5.2	1
190	2	0.1	26.65
190	3	0.2	26.65
190	4	0.3	26.65
190	5	0.4	26.65
190	6	0.5	26.65
190	7	0.6	26.65
190	8	0.7	26.65
190	9	0.8	26.65
190	10	0.9	26.65
190	11	1	26.65
190	12	1.1	26.65
190	188	1.2	26.65
190	193	1.3	26.65
190	194	1.4	26.65
190	195	1.5	26.65
190	196	1.6	26.65
190	197	1.7	26.65
190	198	1.8	26.65
190	199	1.9	26.65
190	200	2	26.65
190	201	2.1	26.65
190	202	2.2	26.65
190	203	2.3	26.65
190	204	2.4	26.65
190	205	2.5	26.65
190	206	2.6	26.65
190	207	2.7	26.65
190	208	2.8	26.65
190	209	2.9	26.65
190	210	3	26.65
190	211	3.1	26.65
190	212	3.2	26.65
190	213	3.3	26.65
190	214	3.4	26.65
190	215	3.5	26.65
190	216	3.6	26.65
190	217	3.7	26.65
190	218	3.8	26.65
190	219	3.9	26.65
190	220	4	26.65
190	221	4.1	26.65
190	222	4.2	26.65
190	223	4.3	26.65
190	224	4.4	26.65
190	225	4.5	26.65
190	226	4.6	26.65
190	227	4.7	26.65
190	228	4.8	26.65
190	229	4.9	26.65
190	230	5	26.65
190	231	5.1	26.65
190	232	5.2	26.65
189	2	0.1	45.09
189	3	0.2	45.09
189	4	0.3	45.19
189	5	0.4	45.29
189	6	0.5	45.39
189	7	0.6	45.49
189	8	0.7	45.59
189	9	0.8	45.69
189	10	0.9	45.79
189	11	1	45.89
189	12	1.1	45.99
189	188	1.2	46.09
189	193	1.3	46.19
189	194	1.4	46.29
189	195	1.5	46.39
189	196	1.6	46.49
189	197	1.7	46.59
189	198	1.8	46.69
189	199	1.9	46.79
189	200	2	46.89
189	201	2.1	46.99
189	202	2.2	47.09
189	203	2.3	47.19
189	204	2.4	47.29
189	205	2.5	47.39
189	206	2.6	47.49
189	207	2.7	47.59
189	208	2.8	47.69
189	209	2.9	47.79
189	210	3	47.89
189	211	3.1	47.99
189	212	3.2	48.09
189	213	3.3	48.19
189	214	3.4	48.290000000001
189	215	3.5	48.390000000001
189	216	3.6	48.490000000001
189	217	3.7	48.590000000001
189	218	3.8	48.690000000001
189	219	3.9	48.790000000001
189	220	4	48.890000000001
189	221	4.1	48.990000000001
189	222	4.2	49.090000000001
189	223	4.3	49.190000000001
189	224	4.4	49.290000000001
189	225	4.5	49.390000000001
189	226	4.6	49.490000000001
189	227	4.7	49.590000000001
189	228	4.8	49.690000000001
189	229	4.9	49.790000000001
189	230	5	49.890000000001
189	231	5.1	49.990000000001
189	232	5.2	50.090000000001
204	4	0.3	1.15833237888
204	5	0.4	1.15833237888
204	6	0.5	1.15833237888
204	7	0.6	1.15833237888
204	8	0.7	1.15833237888
204	9	0.8	1.15833237888
204	10	0.9	1.15833237888
204	11	1	1.15833237888
204	12	1.1	1.15833237888
204	188	1.2	1.15833237888
204	193	1.3	1.15833237888
204	194	1.4	1.15833237888
204	195	1.5	1.15833237888
204	196	1.6	1.15833237888
204	197	1.7	1.15833237888
204	198	1.8	1.15833237888
204	199	1.9	1.15833237888
204	200	2	1.15833237888
204	201	2.1	1.15833237888
204	202	2.2	1.15833237888
204	203	2.3	1.15833237888
204	204	2.4	1.15833237888
204	205	2.5	1.15833237888
204	206	2.6	1.15833237888
204	207	2.7	1.15833237888
204	208	2.8	1.15833237888
204	209	2.9	1.15833237888
204	210	3	1.15833237888
204	211	3.1	1.15833237888
204	212	3.2	1.15833237888
204	213	3.3	1.15833237888
204	214	3.4	1.15833237888
204	215	3.5	1.15833237888
204	216	3.6	1.15833237888
204	217	3.7	1.15833237888
204	218	3.8	1.15833237888
204	219	3.9	1.15833237888
204	220	4	1.15833237888
204	221	4.1	1.15833237888
204	222	4.2	1.15833237888
204	223	4.3	1.15833237888
204	224	4.4	1.15833237888
204	225	4.5	1.15833237888
204	226	4.6	1.15833237888
204	227	4.7	1.15833237888
204	228	4.8	1.15833237888
204	229	4.9	1.15833237888
204	230	5	1.15833237888
204	231	5.1	1.15833237888
204	232	5.2	1.15833237888
203	4	0.3	0
203	5	0.4	0
203	6	0.5	0
203	7	0.6	0
203	8	0.7	0
203	9	0.8	0
203	10	0.9	0
203	11	1	0
203	12	1.1	0
203	188	1.2	0
203	193	1.3	0
203	194	1.4	0
203	195	1.5	0
203	196	1.6	0
203	197	1.7	0
203	198	1.8	0
203	199	1.9	0
203	200	2	0
203	201	2.1	0
203	202	2.2	0
203	203	2.3	0
203	204	2.4	0
203	205	2.5	0
203	206	2.6	0
203	207	2.7	0
203	208	2.8	0
203	209	2.9	0
203	210	3	0
203	211	3.1	0
203	212	3.2	0
203	213	3.3	0
203	214	3.4	0
203	215	3.5	0
203	216	3.6	0
203	217	3.7	0
203	218	3.8	0
203	219	3.9	0
203	220	4	0
203	221	4.1	0
203	222	4.2	0
203	223	4.3	0
203	224	4.4	0
203	225	4.5	0
203	226	4.6	0
203	227	4.7	0
203	228	4.8	0
203	229	4.9	0
203	230	5	0
203	231	5.1	0
203	232	5.2	0
202	3	0.2	1
202	4	0.3	1
202	5	0.4	1
202	6	0.5	1
202	7	0.6	1
202	8	0.7	1
202	9	0.8	1
202	10	0.9	1
202	11	1	1
202	12	1.1	1
202	188	1.2	1
202	193	1.3	1
202	194	1.4	1
202	195	1.5	1
202	196	1.6	1
202	197	1.7	1
202	198	1.8	1
202	199	1.9	1
202	200	2	1
202	201	2.1	1
202	202	2.2	1
202	203	2.3	1
202	204	2.4	1
202	205	2.5	1
202	206	2.6	1
202	207	2.7	1
202	208	2.8	1
202	209	2.9	1
202	210	3	1
202	211	3.1	1
202	212	3.2	1
202	213	3.3	1
202	214	3.4	1
202	215	3.5	1
202	216	3.6	1
202	217	3.7	1
202	218	3.8	1
202	219	3.9	1
202	220	4	1
202	221	4.1	1
202	222	4.2	1
202	223	4.3	1
202	224	4.4	1
202	225	4.5	1
202	226	4.6	1
202	227	4.7	1
202	228	4.8	1
202	229	4.9	1
202	230	5	1
202	231	5.1	1
202	232	5.2	1
201	2	0.1	33.25
201	3	0.2	33.25
201	4	0.3	33.25
201	5	0.4	33.25
201	6	0.5	33.25
201	7	0.6	33.25
201	8	0.7	33.25
201	9	0.8	33.25
201	10	0.9	33.25
201	11	1	33.25
201	12	1.1	33.25
201	188	1.2	33.25
201	193	1.3	33.25
201	194	1.4	33.25
201	195	1.5	33.25
201	196	1.6	33.25
201	197	1.7	33.25
201	198	1.8	33.25
201	199	1.9	33.25
201	200	2	33.25
201	201	2.1	33.25
201	202	2.2	33.25
201	203	2.3	33.25
201	204	2.4	33.25
201	205	2.5	33.25
201	206	2.6	33.25
201	207	2.7	33.25
201	208	2.8	33.25
201	209	2.9	33.25
201	210	3	33.25
201	211	3.1	33.25
201	212	3.2	33.25
201	213	3.3	33.25
201	214	3.4	33.25
201	215	3.5	33.25
201	216	3.6	33.25
201	217	3.7	33.25
201	218	3.8	33.25
201	219	3.9	33.25
201	220	4	33.25
201	221	4.1	33.25
201	222	4.2	33.25
201	223	4.3	33.25
201	224	4.4	33.25
201	225	4.5	33.25
201	226	4.6	33.25
201	227	4.7	33.25
201	228	4.8	33.25
201	229	4.9	33.25
201	230	5	33.25
201	231	5.1	33.25
201	232	5.2	33.25
200	2	0.1	185.09
200	3	0.2	185.09
200	4	0.3	185.19
200	5	0.4	185.29
200	6	0.5	185.39
200	7	0.6	185.49
200	8	0.7	185.59
200	9	0.8	185.69
200	10	0.9	185.79
200	11	1	185.89
200	12	1.1	185.99
200	188	1.2	186.09
200	193	1.3	186.19
200	194	1.4	186.29
200	195	1.5	186.39
200	196	1.6	186.49
200	197	1.7	186.59
200	198	1.8	186.69
200	199	1.9	186.79
200	200	2	186.89
200	201	2.1	186.99
200	202	2.2	187.09
200	203	2.3	187.19
200	204	2.4	187.29
200	205	2.5	187.39
200	206	2.6	187.49
200	207	2.7	187.59
200	208	2.8	187.69
200	209	2.9	187.79
200	210	3	187.89
200	211	3.1	187.99
200	212	3.2	188.09
200	213	3.3	188.19
200	214	3.4	188.29
200	215	3.5	188.39
200	216	3.6	188.49
200	217	3.7	188.59
200	218	3.8	188.69
200	219	3.9	188.79
200	220	4	188.89
200	221	4.1	188.99
200	222	4.2	189.09
200	223	4.3	189.19
200	224	4.4	189.29
200	225	4.5	189.39
200	226	4.6	189.49
200	227	4.7	189.59
200	228	4.8	189.69
200	229	4.9	189.79
200	230	5	189.89
200	231	5.1	189.99
200	232	5.2	190.09
215	4	0.3	1.15833237888
215	5	0.4	1.15833237888
215	6	0.5	1.15833237888
215	7	0.6	1.15833237888
215	8	0.7	1.15833237888
215	9	0.8	1.15833237888
215	10	0.9	1.15833237888
215	11	1	1.15833237888
215	12	1.1	1.15833237888
215	188	1.2	1.15833237888
215	193	1.3	1.15833237888
215	194	1.4	1.15833237888
215	195	1.5	1.15833237888
215	196	1.6	1.15833237888
215	197	1.7	1.15833237888
215	198	1.8	1.15833237888
215	199	1.9	1.15833237888
215	200	2	1.15833237888
215	201	2.1	1.15833237888
215	202	2.2	1.15833237888
215	203	2.3	1.15833237888
215	204	2.4	1.15833237888
215	205	2.5	1.15833237888
215	206	2.6	1.15833237888
215	207	2.7	1.15833237888
215	208	2.8	1.15833237888
215	209	2.9	1.15833237888
215	210	3	1.15833237888
215	211	3.1	1.15833237888
215	212	3.2	1.15833237888
215	213	3.3	1.15833237888
215	214	3.4	1.15833237888
215	215	3.5	1.15833237888
215	216	3.6	1.15833237888
215	217	3.7	1.15833237888
215	218	3.8	1.15833237888
215	219	3.9	1.15833237888
215	220	4	1.15833237888
215	221	4.1	1.15833237888
215	222	4.2	1.15833237888
215	223	4.3	1.15833237888
215	224	4.4	1.15833237888
215	225	4.5	1.15833237888
215	226	4.6	1.15833237888
215	227	4.7	1.15833237888
215	228	4.8	1.15833237888
215	229	4.9	1.15833237888
215	230	5	1.15833237888
215	231	5.1	1.15833237888
215	232	5.2	1.15833237888
214	4	0.3	0
214	5	0.4	0
214	6	0.5	0
214	7	0.6	0
214	8	0.7	0
214	9	0.8	0
214	10	0.9	0
214	11	1	0
214	12	1.1	0
214	188	1.2	0
214	193	1.3	0
214	194	1.4	0
214	195	1.5	0
214	196	1.6	0
214	197	1.7	0
214	198	1.8	0
214	199	1.9	0
214	200	2	0
214	201	2.1	0
214	202	2.2	0
214	203	2.3	0
214	204	2.4	0
214	205	2.5	0
214	206	2.6	0
214	207	2.7	0
214	208	2.8	0
214	209	2.9	0
214	210	3	0
214	211	3.1	0
214	212	3.2	0
214	213	3.3	0
214	214	3.4	0
214	215	3.5	0
214	216	3.6	0
214	217	3.7	0
214	218	3.8	0
214	219	3.9	0
214	220	4	0
214	221	4.1	0
214	222	4.2	0
214	223	4.3	0
214	224	4.4	0
214	225	4.5	0
214	226	4.6	0
214	227	4.7	0
214	228	4.8	0
214	229	4.9	0
214	230	5	0
214	231	5.1	0
214	232	5.2	0
213	3	0.2	1
213	4	0.3	1
213	5	0.4	1
213	6	0.5	1
213	7	0.6	1
213	8	0.7	1
213	9	0.8	1
213	10	0.9	1
213	11	1	1
213	12	1.1	1
213	188	1.2	1
213	193	1.3	1
213	194	1.4	1
213	195	1.5	1
213	196	1.6	1
213	197	1.7	1
213	198	1.8	1
213	199	1.9	1
213	200	2	1
213	201	2.1	1
213	202	2.2	1
213	203	2.3	1
213	204	2.4	1
213	205	2.5	1
213	206	2.6	1
213	207	2.7	1
213	208	2.8	1
213	209	2.9	1
213	210	3	1
213	211	3.1	1
213	212	3.2	1
213	213	3.3	1
213	214	3.4	1
213	215	3.5	1
213	216	3.6	1
213	217	3.7	1
213	218	3.8	1
213	219	3.9	1
213	220	4	1
213	221	4.1	1
213	222	4.2	1
213	223	4.3	1
213	224	4.4	1
213	225	4.5	1
213	226	4.6	1
213	227	4.7	1
213	228	4.8	1
213	229	4.9	1
213	230	5	1
213	231	5.1	1
213	232	5.2	1
212	2	0.1	29.95
212	3	0.2	29.95
212	4	0.3	29.95
212	5	0.4	29.95
212	6	0.5	29.95
212	7	0.6	29.95
212	8	0.7	29.95
212	9	0.8	29.95
212	10	0.9	29.95
212	11	1	29.95
212	12	1.1	29.95
212	188	1.2	29.95
212	193	1.3	29.95
212	194	1.4	29.95
212	195	1.5	29.95
212	196	1.6	29.95
212	197	1.7	29.95
212	198	1.8	29.95
212	199	1.9	29.95
212	200	2	29.95
212	201	2.1	29.95
212	202	2.2	29.95
212	203	2.3	29.95
212	204	2.4	29.95
212	205	2.5	29.95
212	206	2.6	29.95
212	207	2.7	29.95
212	208	2.8	29.95
212	209	2.9	29.95
212	210	3	29.95
212	211	3.1	29.95
212	212	3.2	29.95
212	213	3.3	29.95
212	214	3.4	29.95
212	215	3.5	29.95
212	216	3.6	29.95
212	217	3.7	29.95
212	218	3.8	29.95
212	219	3.9	29.95
212	220	4	29.95
212	221	4.1	29.95
212	222	4.2	29.95
212	223	4.3	29.95
212	224	4.4	29.95
212	225	4.5	29.95
212	226	4.6	29.95
212	227	4.7	29.95
212	228	4.8	29.95
212	229	4.9	29.95
212	230	5	29.95
212	231	5.1	29.95
212	232	5.2	29.95
211	2	0.1	185.09
211	3	0.2	185.09
211	4	0.3	185.19
211	5	0.4	185.29
211	6	0.5	185.39
211	7	0.6	185.49
211	8	0.7	185.59
211	9	0.8	185.69
211	10	0.9	185.79
211	11	1	185.89
211	12	1.1	185.99
211	188	1.2	186.09
211	193	1.3	186.19
211	194	1.4	186.29
211	195	1.5	186.39
211	196	1.6	186.49
211	197	1.7	186.59
211	198	1.8	186.69
211	199	1.9	186.79
211	200	2	186.89
211	201	2.1	186.99
211	202	2.2	187.09
211	203	2.3	187.19
211	204	2.4	187.29
211	205	2.5	187.39
211	206	2.6	187.49
211	207	2.7	187.59
211	208	2.8	187.69
211	209	2.9	187.79
211	210	3	187.89
211	211	3.1	187.99
211	212	3.2	188.09
211	213	3.3	188.19
211	214	3.4	188.29
211	215	3.5	188.39
211	216	3.6	188.49
211	217	3.7	188.59
211	218	3.8	188.69
211	219	3.9	188.79
211	220	4	188.89
211	221	4.1	188.99
211	222	4.2	189.09
211	223	4.3	189.19
211	224	4.4	189.29
211	225	4.5	189.39
211	226	4.6	189.49
211	227	4.7	189.59
211	228	4.8	189.69
211	229	4.9	189.79
211	230	5	189.89
211	231	5.1	189.99
211	232	5.2	190.09
226	4	0.3	1.15833237888
226	5	0.4	1.15833237888
226	6	0.5	1.15833237888
226	7	0.6	1.15833237888
226	8	0.7	1.15833237888
226	9	0.8	1.15833237888
226	10	0.9	1.15833237888
226	11	1	1.15833237888
226	12	1.1	1.15833237888
226	188	1.2	1.15833237888
226	193	1.3	1.15833237888
226	194	1.4	1.15833237888
226	195	1.5	1.15833237888
226	196	1.6	1.15833237888
226	197	1.7	1.15833237888
226	198	1.8	1.15833237888
226	199	1.9	1.15833237888
226	200	2	1.15833237888
226	201	2.1	1.15833237888
226	202	2.2	1.15833237888
226	203	2.3	1.15833237888
226	204	2.4	1.15833237888
226	205	2.5	1.15833237888
226	206	2.6	1.15833237888
226	207	2.7	1.15833237888
226	208	2.8	1.15833237888
226	209	2.9	1.15833237888
226	210	3	1.15833237888
226	211	3.1	1.15833237888
226	212	3.2	1.15833237888
226	213	3.3	1.15833237888
226	214	3.4	1.15833237888
226	215	3.5	1.15833237888
226	216	3.6	1.15833237888
226	217	3.7	1.15833237888
226	218	3.8	1.15833237888
226	219	3.9	1.15833237888
226	220	4	1.15833237888
226	221	4.1	1.15833237888
226	222	4.2	1.15833237888
226	223	4.3	1.15833237888
226	224	4.4	1.15833237888
226	225	4.5	1.15833237888
226	226	4.6	1.15833237888
226	227	4.7	1.15833237888
226	228	4.8	1.15833237888
226	229	4.9	1.15833237888
226	230	5	1.15833237888
226	231	5.1	1.15833237888
226	232	5.2	1.15833237888
225	4	0.3	0
225	5	0.4	0
225	6	0.5	0
225	7	0.6	0
225	8	0.7	0
225	9	0.8	0
225	10	0.9	0
225	11	1	0
225	12	1.1	0
225	188	1.2	0
225	193	1.3	0
225	194	1.4	0
225	195	1.5	0
225	196	1.6	0
225	197	1.7	0
225	198	1.8	0
225	199	1.9	0
225	200	2	0
225	201	2.1	0
225	202	2.2	0
225	203	2.3	0
225	204	2.4	0
225	205	2.5	0
225	206	2.6	0
225	207	2.7	0
225	208	2.8	0
225	209	2.9	0
225	210	3	0
225	211	3.1	0
225	212	3.2	0
225	213	3.3	0
225	214	3.4	0
225	215	3.5	0
225	216	3.6	0
225	217	3.7	0
225	218	3.8	0
225	219	3.9	0
225	220	4	0
225	221	4.1	0
225	222	4.2	0
225	223	4.3	0
225	224	4.4	0
225	225	4.5	0
225	226	4.6	0
225	227	4.7	0
225	228	4.8	0
225	229	4.9	0
225	230	5	0
225	231	5.1	0
225	232	5.2	0
224	3	0.2	1
224	4	0.3	1
224	5	0.4	1
224	6	0.5	1
224	7	0.6	1
224	8	0.7	1
224	9	0.8	1
224	10	0.9	1
224	11	1	1
224	12	1.1	1
224	188	1.2	1
224	193	1.3	1
224	194	1.4	1
224	195	1.5	1
224	196	1.6	1
224	197	1.7	1
224	198	1.8	1
224	199	1.9	1
224	200	2	1
224	201	2.1	1
224	202	2.2	1
224	203	2.3	1
224	204	2.4	1
224	205	2.5	1
224	206	2.6	1
224	207	2.7	1
224	208	2.8	1
224	209	2.9	1
224	210	3	1
224	211	3.1	1
224	212	3.2	1
224	213	3.3	1
224	214	3.4	1
224	215	3.5	1
224	216	3.6	1
224	217	3.7	1
224	218	3.8	1
224	219	3.9	1
224	220	4	1
224	221	4.1	1
224	222	4.2	1
224	223	4.3	1
224	224	4.4	1
224	225	4.5	1
224	226	4.6	1
224	227	4.7	1
224	228	4.8	1
224	229	4.9	1
224	230	5	1
224	231	5.1	1
224	232	5.2	1
223	2	0.1	26.65
223	3	0.2	26.65
223	4	0.3	26.65
223	5	0.4	26.65
223	6	0.5	26.65
223	7	0.6	26.65
223	8	0.7	26.65
223	9	0.8	26.65
223	10	0.9	26.65
223	11	1	26.65
223	12	1.1	26.65
223	188	1.2	26.65
223	193	1.3	26.65
223	194	1.4	26.65
223	195	1.5	26.65
223	196	1.6	26.65
223	197	1.7	26.65
223	198	1.8	26.65
223	199	1.9	26.65
223	200	2	26.65
223	201	2.1	26.65
223	202	2.2	26.65
223	203	2.3	26.65
223	204	2.4	26.65
223	205	2.5	26.65
223	206	2.6	26.65
223	207	2.7	26.65
223	208	2.8	26.65
223	209	2.9	26.65
223	210	3	26.65
223	211	3.1	26.65
223	212	3.2	26.65
223	213	3.3	26.65
223	214	3.4	26.65
223	215	3.5	26.65
223	216	3.6	26.65
223	217	3.7	26.65
223	218	3.8	26.65
223	219	3.9	26.65
223	220	4	26.65
223	221	4.1	26.65
223	222	4.2	26.65
223	223	4.3	26.65
223	224	4.4	26.65
223	225	4.5	26.65
223	226	4.6	26.65
223	227	4.7	26.65
223	228	4.8	26.65
223	229	4.9	26.65
223	230	5	26.65
223	231	5.1	26.65
223	232	5.2	26.65
222	2	0.1	185.09
222	3	0.2	185.09
222	4	0.3	185.19
222	5	0.4	185.29
222	6	0.5	185.39
222	7	0.6	185.49
222	8	0.7	185.59
222	9	0.8	185.69
222	10	0.9	185.79
222	11	1	185.89
222	12	1.1	185.99
222	188	1.2	186.09
222	193	1.3	186.19
222	194	1.4	186.29
222	195	1.5	186.39
222	196	1.6	186.49
222	197	1.7	186.59
222	198	1.8	186.69
222	199	1.9	186.79
222	200	2	186.89
222	201	2.1	186.99
222	202	2.2	187.09
222	203	2.3	187.19
222	204	2.4	187.29
222	205	2.5	187.39
222	206	2.6	187.49
222	207	2.7	187.59
222	208	2.8	187.69
222	209	2.9	187.79
222	210	3	187.89
222	211	3.1	187.99
222	212	3.2	188.09
222	213	3.3	188.19
222	214	3.4	188.29
222	215	3.5	188.39
222	216	3.6	188.49
222	217	3.7	188.59
222	218	3.8	188.69
222	219	3.9	188.79
222	220	4	188.89
222	221	4.1	188.99
222	222	4.2	189.09
222	223	4.3	189.19
222	224	4.4	189.29
222	225	4.5	189.39
222	226	4.6	189.49
222	227	4.7	189.59
222	228	4.8	189.69
222	229	4.9	189.79
222	230	5	189.89
222	231	5.1	189.99
222	232	5.2	190.09
